19
Iteration:   873
 C         0.074728        -0.030399        -0.110361
 C         1.591894         0.061887         0.031164
 O         1.902887         1.455374         0.207995
 C         2.020063        -1.023971         1.093804
 C         2.841387        -1.950585         0.628819
 C         3.033648        -1.723038        -0.908339
 C         3.850779        -0.557784        -1.399070
 C         2.259930        -0.537074        -1.237368
 O         1.489983        -0.570158        -2.544837
 H        -0.585262        -0.369726         0.691706
 H        -0.298089         0.878380        -0.569176
 H        -0.157380        -0.755215        -0.986199
 H         2.854189         1.602831         0.169729
 H         1.570323        -0.956129         2.079962
 H         3.248468        -2.832515         1.181646
 H         3.046067        -2.563894        -1.628639
 H         4.311878         0.041771        -0.678373
 H         4.203272        -0.457314        -2.502946
 H         0.571021        -0.805039        -2.333630
