19
Iteration:  3690
 C         0.070495        -0.000696        -0.067423
 C         1.493328        -0.078567         0.032361
 O         1.921967         1.243493         0.554218
 C         2.158948        -0.915382         1.036134
 C         3.007446        -1.812759         0.514045
 C         3.068831        -1.779593        -0.914929
 C         3.607840        -0.403523        -1.471823
 C         2.152054        -0.480724        -1.342982
 O         1.488891        -0.692157        -2.594865
 H        -0.128440         0.584681        -1.019329
 H        -0.526310        -1.043692        -0.189384
 H        -0.460759         0.430962         0.788514
 H         2.687793         1.639323        -0.039072
 H         1.779744        -0.823775         2.024748
 H         3.547989        -2.529118         1.172961
 H         3.062626        -2.631556        -1.646687
 H         4.126590         0.296392        -0.849420
 H         3.819194        -0.243938        -2.559104
 H         1.922847        -0.048674        -3.227859
