19
Iteration:  2121charge 0 multiplicity 1
 C         0.047620        -0.138715         0.097637
 C         1.580456        -0.058747        -0.046002
 O         1.966019         1.311879        -0.007917
 C         2.110852        -1.013941         1.043058
 C         2.878935        -1.977610         0.531334
 C         3.074352        -1.791973        -0.896092
 C         3.759932        -0.378956        -1.345868
 C         2.236130        -0.549654        -1.282159
 O         1.369120        -0.381987        -2.406033
 H        -0.298795         0.538644        -0.664640
 H        -0.520454        -1.098180        -0.098972
 H        -0.267303         0.202062         1.042940
 H         2.917299         1.280524        -0.197213
 H         1.977697        -0.757864         2.103993
 H         3.131320        -2.797636         1.260109
 H         3.187129        -2.455574        -1.744199
 H         4.370462         0.072656        -0.582175
 H         4.147022        -0.566934        -2.339675
 H         0.847640         0.427380        -2.170965
