19
Iteration:  3876
 C         0.025172        -0.474164         0.037450
 C         1.599434        -0.007419         0.026072
 O         1.905761         1.486478         0.189578
 C         2.396590        -0.823742         1.040516
 C         2.842153        -1.997406         0.515927
 C         2.877105        -1.781950        -0.977553
 C         3.735977        -0.647058        -1.366128
 C         2.220994        -0.448632        -1.313010
 O         1.474549        -0.293176        -2.471212
 H        -0.226514        -0.382897        -0.992251
 H        -0.048951        -1.616754         0.440368
 H        -0.593546         0.179835         0.657251
 H         0.986415         1.963212         0.136241
 H         2.256520        -0.477381         2.035864
 H         3.473053        -2.760304         0.933130
 H         2.773017        -2.715012        -1.548693
 H         4.377511        -0.342242        -0.621047
 H         4.281392        -0.653131        -2.242701
 H         1.387098         0.695125        -2.637242
