19
Iteration:  2642
 C        -0.016910        -0.038370        -0.036001
 C         1.514912         0.002169        -0.003078
 O         1.914737         1.279156         0.418107
 C         2.196040        -0.952445         1.117959
 C         3.006637        -1.820978         0.544546
 C         2.996499        -1.718310        -0.918847
 C         3.682187        -0.590862        -1.497416
 C         2.197762        -0.478634        -1.347590
 O         1.433095        -0.576770        -2.582907
 H        -0.377597         0.388836        -1.046939
 H        -0.447373        -1.010669         0.151418
 H        -0.347544         0.706253         0.681292
 H         2.906411         1.195238         0.686009
 H         2.306124        -0.770021         2.251365
 H         3.574721        -2.671346         1.006302
 H         3.048986        -2.601958        -1.530456
 H         4.367213         0.100988        -0.941264
 H         3.884393        -0.743851        -2.531668
 H         1.699690         0.143113        -3.184003
