19
Iteration:  2624charge 0 multiplicity 1
 C        -0.019055         0.008619        -0.058576
 C         1.541333        -0.095575         0.005587
 O         1.969341         1.302372         0.315110
 C         2.121952        -0.932430         1.012771
 C         3.004098        -1.860328         0.554434
 C         3.054148        -1.839125        -0.958370
 C         3.763287        -0.439194        -1.442040
 C         2.172600        -0.645937        -1.326219
 O         1.334198        -0.505028        -2.437281
 H        -0.348028         0.520025        -0.938622
 H        -0.370302        -0.984765        -0.097941
 H        -0.327257         0.527434         0.871456
 H         2.977625         1.429888         0.270043
 H         1.781772        -0.709432         2.014849
 H         3.712714        -2.364228         1.165155
 H         3.092840        -2.683187        -1.604412
 H         4.246003        -0.003051        -0.628473
 H         4.329482        -0.368989        -2.426649
 H         1.493559         0.326749        -2.902228
