19
Iteration:  3009
 C        -0.020076        -0.224890         0.134595
 C         1.594300        -0.088827         0.021534
 O         1.855112         1.345335         0.083114
 C         2.266466        -0.890268         1.120079
 C         2.997116        -1.885682         0.566387
 C         2.939541        -1.755282        -0.991880
 C         3.734313        -0.561326        -1.431904
 C         2.207523        -0.579450        -1.311036
 O         1.505599        -0.353168        -2.542223
 H        -0.708154         0.287994        -0.605570
 H        -0.454897        -1.162410         0.325668
 H        -0.275181         0.144817         1.096375
 H         1.507126         1.638367         0.929598
 H         1.972597        -0.698102         2.132672
 H         3.427619        -2.756058         1.094315
 H         3.041573        -2.564499        -1.766429
 H         4.300992        -0.068644        -0.544761
 H         4.027123        -0.523418        -2.444450
 H         1.879050         0.465678        -2.961287
