19
Iteration:  1231charge 0 multiplicity 1
 C         0.027258        -0.157022         0.063944
 C         1.574928         0.069169         0.028403
 O         1.957514         1.461978         0.185927
 C         2.054152        -1.005506         1.087379
 C         2.751585        -2.008053         0.479154
 C         3.107151        -1.784620        -0.984791
 C         3.741800        -0.436388        -1.212232
 C         2.284409        -0.561770        -1.344938
 O         1.512136        -0.545268        -2.578683
 H        -0.487547         0.475150        -0.701125
 H        -0.145184        -1.197623        -0.213554
 H        -0.412283         0.194075         1.078018
 H         2.513811         1.714154        -0.504880
 H         1.676683        -0.921926         2.114647
 H         3.148816        -2.873763         0.978268
 H         3.285702        -2.638194        -1.645484
 H         4.152613         0.113470        -0.417767
 H         4.455015        -0.355409        -2.079986
 H         0.920847         0.241677        -2.514232
