19
Iteration:    86
 C         0.061614        -0.101434        -0.153906
 C         1.565712        -0.071525        -0.034331
 O         2.037213         1.312052         0.144472
 C         2.156981        -0.921321         1.082915
 C         2.905961        -1.925315         0.512501
 C         3.099958        -1.802878        -0.942365
 C         3.738815        -0.503132        -1.287735
 C         2.195119        -0.542167        -1.285482
 O         1.301756        -0.429349        -2.378124
 H        -0.348312         0.407484         0.702374
 H        -0.195284         0.443443        -1.051972
 H        -0.306788        -1.185799        -0.057694
 H         1.352269         1.848898         0.690661
 H         1.666061        -1.015949         2.030027
 H         3.380327        -2.742784         1.008344
 H         3.184698        -2.673583        -1.564416
 H         4.179614         0.050546        -0.425868
 H         4.327369        -0.297598        -2.161992
 H         1.763691         0.261111        -2.916108
