19
Iteration:  3076
 C         0.071435        -0.139739        -0.028566
 C         1.583175         0.008299        -0.006939
 O         1.935268         1.330636         0.362289
 C         2.217582        -0.924757         1.054875
 C         2.921116        -1.915379         0.533798
 C         3.082069        -1.746762        -0.993001
 C         3.750596        -0.477450        -1.403047
 C         2.198075        -0.565188        -1.294831
 O         1.351768        -0.564498        -2.488977
 H        -0.394818         0.731985        -0.606679
 H        -0.231367        -0.993607        -0.526533
 H        -0.350166        -0.044941         0.974973
 H         1.377644         1.839967        -0.322278
 H         2.090146        -0.468074         2.053815
 H         3.501174        -2.688441         1.056509
 H         3.146100        -2.626060        -1.708628
 H         4.149998         0.142947        -0.627437
 H         4.070348        -0.535406        -2.513371
 H         1.278680         0.315069        -2.875681
