19
Iteration:   336
 C        -0.024680        -0.056121        -0.159327
 C         1.565097        -0.080813         0.072782
 O         1.890663         1.333195         0.153384
 C         2.094365        -0.961470         1.182195
 C         2.905335        -1.902325         0.560123
 C         3.118979        -1.841711        -0.942924
 C         3.677755        -0.472570        -1.369375
 C         2.219908        -0.675982        -1.298594
 O         1.456354        -0.325540        -2.479355
 H        -0.564543         0.878948         0.216409
 H        -0.041990        -0.344507        -1.206293
 H        -0.440870        -0.972660         0.312024
 H         2.707125         1.336146         0.812740
 H         1.977014        -0.970113         2.319673
 H         3.581882        -2.568020         1.131361
 H         3.314649        -2.620617        -1.688694
 H         4.118035         0.005759        -0.542565
 H         4.110065        -0.162086        -2.363598
 H         2.109307        -0.002183        -3.098803
