19
Iteration:  2323charge 0 multiplicity 1
 C        -0.022456         0.068984         0.056221
 C         1.521252         0.055237         0.020707
 O         1.842207         1.409892         0.458317
 C         2.177547        -0.964308         1.017107
 C         3.017577        -1.898477         0.437514
 C         3.080699        -1.796173        -1.005100
 C         3.740236        -0.575701        -1.511109
 C         2.179440        -0.586220        -1.342429
 O         1.459138        -0.648771        -2.538227
 H        -0.658151         0.413203        -0.709077
 H        -0.409391        -0.930599         0.354326
 H        -0.086567         0.750923         0.923463
 H         2.728620         1.318511         0.794827
 H         1.604320        -0.975625         2.039238
 H         3.750026        -2.626019         0.938375
 H         3.053659        -2.520869        -1.801519
 H         4.370799        -0.025741        -0.711917
 H         4.096116        -0.661389        -2.523410
 H         1.507315         0.244268        -2.885458
