19
Iteration:  4645charge 0 multiplicity 1
 C         0.111389         0.064175        -0.002822
 C         1.539629        -0.034920         0.116878
 O         1.954008         1.328891         0.398877
 C         2.089907        -1.110128         0.984185
 C         2.915968        -1.917260         0.396944
 C         3.169053        -1.664795        -1.008456
 C         3.640552        -0.358393        -1.489169
 C         2.164277        -0.507557        -1.247958
 O         1.440092        -0.659531        -2.482156
 H        -0.196877        -0.830606        -0.466748
 H        -0.551952         0.076196         0.914411
 H        -0.138639         0.879152        -0.576669
 H         2.881910         1.380539         0.190468
 H         1.885537        -1.181161         2.040254
 H         3.365835        -2.717258         0.928121
 H         3.314826        -2.458286        -1.748190
 H         4.293944         0.245455        -0.904121
 H         3.886268        -0.482434        -2.541668
 H         0.500472        -0.467664        -2.277405
