19
Iteration:  4674
 C        -0.019649        -0.076612         0.064300
 C         1.571043        -0.075007         0.031648
 O         1.933644         1.298002         0.250758
 C         2.154513        -1.017336         0.992719
 C         2.976613        -2.021818         0.502912
 C         2.979549        -1.772097        -0.972386
 C         3.754241        -0.422164        -1.419440
 C         2.282448        -0.507787        -1.332514
 O         1.384864        -0.335197        -2.457794
 H        -0.453883        -0.973697        -0.528023
 H        -0.346553        -0.146358         1.120630
 H        -0.441065         0.893232        -0.462536
 H         2.635993         1.553869        -0.266196
 H         2.132197        -0.851932         2.056418
 H         3.541801        -2.662270         1.220502
 H         3.493253        -2.556577        -1.631344
 H         4.335130         0.150730        -0.675861
 H         4.117325        -0.313221        -2.423770
 H         0.616939        -0.971027        -2.288699
