19
Iteration:  4961
 C         0.051951        -0.114375         0.103088
 C         1.576539        -0.071429        -0.056881
 O         1.905575         1.304433         0.240957
 C         2.151023        -0.941403         1.043797
 C         2.954543        -1.930679         0.483571
 C         2.971271        -1.747545        -0.961228
 C         3.729678        -0.373133        -1.411888
 C         2.219621        -0.462959        -1.314025
 O         1.419399        -0.584458        -2.461446
 H        -0.546661         0.564232        -0.558207
 H        -0.385093        -1.182861         0.016549
 H        -0.075800         0.285716         1.115433
 H         2.737363         1.498137        -0.095257
 H         1.934607        -0.860424         2.080048
 H         3.486744        -2.778214         0.932646
 H         3.103327        -2.534805        -1.750979
 H         4.282352        -0.001748        -0.564542
 H         4.321513        -0.304551        -2.325106
 H         1.196020         0.297322        -2.744638
