19
Iteration:  2551
 C         0.063723        -0.145522         0.185952
 C         1.572313         0.084014        -0.053688
 O         1.841886         1.459234         0.328983
 C         2.209928        -0.885102         0.929375
 C         2.891530        -1.918398         0.501899
 C         2.930111        -1.830113        -0.966462
 C         3.748678        -0.578998        -1.349303
 C         2.179186        -0.573880        -1.371034
 O         1.529721        -0.595637        -2.566363
 H        -0.267370         0.813602        -0.160695
 H        -0.413424        -0.961514        -0.572760
 H        -0.235327        -0.237703         1.274866
 H         2.887525         1.507126         0.310020
 H         1.935379        -0.593651         1.896505
 H         3.295251        -2.488435         1.286338
 H         2.885389        -2.606491        -1.746710
 H         4.379517        -0.120051        -0.611033
 H         4.217350        -0.480695        -2.423736
 H         1.334778         0.331228        -2.763201
