19
Iteration:  1155
 C        -0.006565        -0.011894        -0.068016
 C         1.508854        -0.079251        -0.036429
 O         1.797181         1.282800         0.418992
 C         2.078590        -0.910522         1.044207
 C         2.898510        -1.819550         0.508918
 C         3.058124        -1.789075        -0.886641
 C         3.750760        -0.597991        -1.502563
 C         2.312277        -0.479154        -1.328265
 O         1.557842        -0.524963        -2.519003
 H        -0.336226         0.867061        -0.640009
 H        -0.423612        -0.968674        -0.339131
 H        -0.394129         0.199192         0.979972
 H         2.534842         1.392040         1.141696
 H         2.014846        -0.796808         2.090572
 H         3.457957        -2.369073         1.188772
 H         2.865156        -2.704556        -1.434367
 H         4.470992         0.102679        -1.105552
 H         4.069245        -0.695913        -2.555331
 H         1.962696        -0.097002        -3.283419
