19
Iteration:  3446
 C        -0.056590         0.130697         0.094575
 C         1.510974        -0.053101        -0.002226
 O         1.874504         1.291290         0.345879
 C         2.155518        -1.026536         1.025346
 C         3.015161        -1.850950         0.487587
 C         3.180381        -1.713442        -0.967800
 C         3.742578        -0.401573        -1.456458
 C         2.189687        -0.627594        -1.359900
 O         1.407677        -0.711975        -2.546678
 H        -0.341135         1.282674        -0.244322
 H        -0.428065        -0.565548        -0.582024
 H        -0.445896        -0.071766         1.147752
 H         2.240656         1.365991         1.193921
 H         1.873481        -0.916814         2.045936
 H         3.634516        -2.623049         0.979797
 H         3.434598        -2.661335        -1.607358
 H         4.112394         0.329827        -0.764697
 H         4.182550        -0.162388        -2.489020
 H         1.480514         0.057973        -3.108367
