19
Iteration:  2434
 C         0.036929        -0.039833         0.331643
 C         1.565048         0.045920         0.059014
 O         1.808212         1.449086         0.128831
 C         2.284168        -0.927643         1.022714
 C         2.825655        -2.035525         0.457751
 C         2.953242        -1.811209        -1.032096
 C         3.642180        -0.493538        -1.305759
 C         2.099826        -0.616179        -1.292882
 O         1.701562        -0.553510        -2.672543
 H        -0.461236         0.798264        -0.172849
 H        -0.371750        -1.039179         0.026752
 H        -0.064847         0.107784         1.369982
 H         2.796975         1.625393         0.098174
 H         2.062637        -1.001908         2.061550
 H         3.594141        -2.575153         0.919244
 H         2.935566        -2.720763        -1.646978
 H         4.279377        -0.213902        -0.492314
 H         4.136246        -0.231890        -2.317445
 H         1.164029         0.264729        -2.827260
