19
Iteration:  4565
 C         0.048217         0.036700        -0.025572
 C         1.579358        -0.108285         0.046235
 O         2.023480         1.221154         0.266938
 C         2.093323        -1.111074         1.044626
 C         3.028564        -1.947329         0.492148
 C         3.156335        -1.660399        -0.937323
 C         3.611079        -0.276658        -1.482994
 C         2.188590        -0.536739        -1.272348
 O         1.278880        -0.496097        -2.420436
 H        -0.544049        -0.873612        -0.331923
 H        -0.334285         0.458265         0.839886
 H        -0.205259         0.767566        -0.886755
 H         2.529491         1.217432         1.046114
 H         1.629704        -1.174589         2.051993
 H         3.492853        -2.880906         0.839503
 H         3.405906        -2.470388        -1.675382
 H         4.150761         0.486438        -0.897824
 H         3.856944        -0.207648        -2.542650
 H         1.825442        -0.870122        -3.142258
