19
Iteration:  1437charge 0 multiplicity 1
 C         0.065080        -0.078415        -0.164677
 C         1.608862        -0.008922        -0.028696
 O         2.013795         1.287431         0.416698
 C         2.146710        -0.920889         1.050970
 C         2.871310        -1.976667         0.592892
 C         2.994469        -1.762815        -0.944705
 C         3.828122        -0.476147        -1.458104
 C         2.282034        -0.538910        -1.312735
 O         1.290181        -0.489907        -2.475810
 H        -0.359824         0.425336        -1.047250
 H        -0.116079        -1.161359        -0.281791
 H        -0.373596         0.316262         0.807439
 H         1.221625         1.879610         0.354109
 H         1.626755        -0.589642         1.983907
 H         3.306880        -2.803013         1.239404
 H         3.057773        -2.643852        -1.569889
 H         4.456498         0.136414        -0.755266
 H         4.109037        -0.594670        -2.439002
 H         1.766966         0.231499        -2.942163
