19
Iteration:   501
 C        -0.040899        -0.118666         0.014148
 C         1.534904         0.024538         0.078210
 O         1.851030         1.448235         0.183191
 C         2.108778        -0.962830         1.083202
 C         2.878877        -1.938776         0.548419
 C         3.001452        -1.820094        -0.902530
 C         3.774372        -0.546929        -1.419421
 C         2.266288        -0.529121        -1.282866
 O         1.606516        -0.408544        -2.531042
 H        -0.595619        -0.683420         0.843209
 H        -0.623335         0.823927        -0.227910
 H        -0.242192        -0.690398        -0.902357
 H         2.768986         1.594271         0.037406
 H         1.911856        -0.792793         2.100408
 H         3.327682        -2.731037         1.097832
 H         2.947995        -2.657812        -1.599625
 H         4.491493        -0.215555        -0.667598
 H         4.124758        -0.455154        -2.422227
 H         1.397634        -1.300939        -2.904728
