19
Iteration:  1589charge 0 multiplicity 1
 C         0.109261        -0.139279        -0.106153
 C         1.599281         0.085870        -0.037964
 O         1.936818         1.392279         0.408549
 C         2.161802        -0.907742         1.040512
 C         2.806375        -1.998609         0.515438
 C         3.024569        -1.806417        -0.900032
 C         3.817329        -0.588987        -1.412675
 C         2.265764        -0.548627        -1.351898
 O         1.357705        -0.401036        -2.464347
 H        -0.348158         0.338496        -0.921954
 H        -0.133161        -1.163517        -0.042269
 H        -0.320031         0.212668         0.845015
 H         0.980507         1.764984         0.292298
 H         1.824926        -0.734531         2.006565
 H         3.454339        -2.623774         1.119449
 H         2.924789        -2.635839        -1.627131
 H         4.510744        -0.129678        -0.804162
 H         4.198043        -0.647136        -2.470385
 H         1.899553        -0.579597        -3.246881
