19
Iteration:  4865charge 0 multiplicity 1
 C         0.047243        -0.065949         0.069308
 C         1.558246         0.046839         0.086151
 O         1.951514         1.393866         0.368911
 C         2.086224        -1.080318         0.987707
 C         2.941677        -2.030133         0.490080
 C         3.114458        -1.646049        -1.018185
 C         3.700508        -0.318599        -1.558916
 C         2.127558        -0.525226        -1.275314
 O         1.388866        -0.655941        -2.475201
 H        -0.339000        -0.352024        -0.959260
 H        -0.358710        -0.831459         0.795819
 H        -0.496473         0.864866         0.293822
 H         2.976020         1.343539         0.588581
 H         1.735190        -1.017917         1.973970
 H         3.555902        -2.766420         1.009866
 H         3.007975        -2.512216        -1.738279
 H         4.386033         0.189522        -0.810119
 H         4.212991        -0.182968        -2.562074
 H         2.067836        -0.300276        -3.040729
