19
Iteration:  1826charge 0 multiplicity 1
 C         0.006518        -0.135810         0.203139
 C         1.589196        -0.004352         0.038082
 O         1.920203         1.412343         0.232452
 C         2.156386        -0.918947         1.041404
 C         2.845551        -1.961186         0.477426
 C         2.981998        -1.815492        -1.008778
 C         3.685348        -0.504860        -1.336054
 C         2.205192        -0.490358        -1.353931
 O         1.502647        -0.508176        -2.565368
 H        -0.325369         0.888647         0.077455
 H        -0.378279        -0.807632        -0.574173
 H        -0.357831        -0.523199         1.203239
 H         2.550764         1.585237        -0.420859
 H         2.321439        -0.650390         2.115763
 H         3.279862        -2.729998         1.112361
 H         2.898309        -2.654569        -1.682840
 H         4.209285         0.054530        -0.515998
 H         4.337755        -0.400274        -2.230594
 H         2.162572        -0.445428        -3.277384
