19
Iteration:  1953charge 0 multiplicity 1
 C         0.046931         0.030480         0.233729
 C         1.545174        -0.058307        -0.033315
 O         1.832741         1.336608         0.214877
 C         2.154974        -0.977584         1.012615
 C         2.865824        -1.968719         0.495781
 C         3.020563        -1.746643        -0.936025
 C         3.830749        -0.523106        -1.329503
 C         2.194735        -0.545410        -1.353426
 O         1.434173        -0.504036        -2.592130
 H        -0.569270         0.837186        -0.278927
 H        -0.271029        -0.970255         0.124296
 H         0.174113         0.214928         1.369690
 H         2.661189         1.639167        -0.244918
 H         1.839481        -0.841431         2.084177
 H         3.605367        -2.647456         0.969351
 H         2.938942        -2.459984        -1.713712
 H         4.388255        -0.071606        -0.479544
 H         4.182367        -0.576882        -2.335946
 H         1.975025        -0.167366        -3.324145
