19
Iteration:  1309charge 0 multiplicity 1
 C         0.133381        -0.192789        -0.269233
 C         1.561825        -0.028563         0.038329
 O         1.880913         1.394550         0.287852
 C         2.168264        -0.925924         1.127956
 C         2.924952        -1.885716         0.633474
 C         2.958071        -1.838627        -0.915822
 C         3.676870        -0.649971        -1.490659
 C         2.249712        -0.477371        -1.344298
 O         1.429337        -0.376310        -2.455507
 H        -0.261809         0.453793        -1.089513
 H        -0.072721        -1.303339        -0.518110
 H        -0.255802         0.022170         0.718639
 H         2.099189         1.543035         1.222143
 H         2.010181        -0.631951         2.214569
 H         3.539651        -2.511474         1.380024
 H         2.923500        -2.796044        -1.431485
 H         4.219836        -0.039976        -0.673778
 H         4.158554        -0.714328        -2.459757
 H         1.707667         0.485716        -2.824145
