19
Iteration:  4484charge 0 multiplicity 1
 C         0.035878        -0.205985         0.037667
 C         1.588468        -0.030758         0.032599
 O         1.717681         1.351336         0.401602
 C         2.307965        -0.918785         1.042926
 C         3.000567        -1.966161         0.532411
 C         2.958211        -1.833240        -0.976566
 C         3.653023        -0.561895        -1.522847
 C         2.238245        -0.509400        -1.315992
 O         1.581709        -0.242502        -2.553892
 H        -0.258170        -1.269360        -0.132148
 H        -0.259225         0.003422         1.196832
 H        -0.386149         0.572722        -0.574207
 H         2.435690         1.639428        -0.191787
 H         2.116026        -0.862075         2.049697
 H         3.279105        -2.797032         1.081582
 H         2.991400        -2.619764        -1.697260
 H         4.522261        -0.196142        -0.949625
 H         3.829397        -0.575761        -2.579368
 H         0.668101        -0.501029        -2.510201
