19
Iteration:  4134charge 0 multiplicity 1
 C         0.103463        -0.373883         0.143185
 C         1.574661        -0.009307         0.045458
 O         1.661394         1.432463         0.231051
 C         2.335414        -0.828720         1.027868
 C         2.864600        -1.906311         0.444618
 C         2.871295        -1.821145        -1.028180
 C         3.674303        -0.607235        -1.426372
 C         2.226809        -0.514199        -1.260206
 O         1.647143        -0.322431        -2.523936
 H        -0.263260        -1.095046        -0.557461
 H        -0.136516        -0.735025         1.202428
 H        -0.377003         0.551231         0.012330
 H         2.673842         1.541890         0.454996
 H         2.203808        -0.848567         2.070131
 H         3.245231        -2.807671         0.965258
 H         2.682442        -2.641753        -1.713347
 H         4.431280        -0.341163        -0.697685
 H         4.122234        -0.461681        -2.395777
 H         1.781857         0.625204        -2.799977
