19
Iteration:  1823
 C         0.017084        -0.151066         0.186315
 C         1.571700         0.006596         0.043842
 O         1.935396         1.421610         0.245729
 C         2.171052        -0.900290         1.025952
 C         2.828964        -1.988865         0.455822
 C         3.004061        -1.803789        -1.002709
 C         3.654014        -0.506108        -1.320748
 C         2.221079        -0.516218        -1.366446
 O         1.501061        -0.502410        -2.540429
 H        -0.345315         0.895953         0.031660
 H        -0.479603        -0.796244        -0.507271
 H        -0.333159        -0.547167         1.160196
 H         2.552401         1.630144        -0.501340
 H         2.235473        -0.573124         2.058576
 H         3.363559        -2.707529         1.158210
 H         2.884387        -2.683075        -1.655862
 H         4.133805         0.030472        -0.555375
 H         4.419738        -0.386258        -2.177609
 H         2.077861        -0.442458        -3.343000
