19
Iteration:  3545charge 0 multiplicity 1
 C         0.075960        -0.242731        -0.069735
 C         1.616002         0.010740         0.053494
 O         1.802183         1.423188         0.372783
 C         2.244501        -0.875196         1.093870
 C         2.990071        -1.879917         0.532900
 C         2.917250        -1.812941        -0.965614
 C         3.701526        -0.625723        -1.544337
 C         2.274798        -0.509329        -1.300700
 O         1.489527        -0.436979        -2.465851
 H        -0.016297         0.139920        -1.173328
 H        -0.236167        -1.213575         0.051038
 H        -0.496324         0.172719         0.813993
 H         0.924481         1.733789         0.241577
 H         1.906641        -0.738629         2.155616
 H         3.443714        -2.677111         1.037166
 H         2.849589        -2.713990        -1.524259
 H         4.475957        -0.090729        -0.879347
 H         3.985461        -0.649923        -2.570203
 H         1.773409         0.292534        -3.037501
