19
Iteration:  2135charge 0 multiplicity 1
 C         0.102433        -0.106428         0.003092
 C         1.615279        -0.043138         0.073104
 O         1.885095         1.389412         0.041036
 C         2.150758        -1.006700         1.163489
 C         2.889692        -1.965220         0.528769
 C         3.028064        -1.760758        -0.986433
 C         3.720706        -0.488920        -1.398283
 C         2.191061        -0.591158        -1.294746
 O         1.420329        -0.405544        -2.401489
 H        -0.487969         0.499663        -0.731160
 H        -0.104994        -1.128982        -0.109102
 H        -0.249501         0.204407         0.986206
 H         2.755839         1.546809        -0.382077
 H         1.798111        -1.108206         2.276274
 H         3.285774        -2.979339         0.820743
 H         3.198166        -2.699820        -1.466564
 H         4.297528         0.117716        -0.583819
 H         4.090767        -0.383417        -2.401979
 H         1.264200         0.547763        -2.494585
