19
Iteration:  1460charge 0 multiplicity 1
 C         0.097313        -0.110365        -0.227003
 C         1.675687         0.056046         0.080986
 O         1.915520         1.437040         0.541022
 C         2.155495        -0.934971         1.065730
 C         2.830667        -1.950049         0.436784
 C         3.046947        -1.784134        -0.971951
 C         3.691971        -0.604974        -1.504533
 C         2.265884        -0.479191        -1.318679
 O         1.420929        -0.588143        -2.400345
 H        -0.138303         0.666811        -1.001841
 H        -0.066205        -1.147525        -0.740464
 H        -0.453441         0.128939         0.701341
 H         1.207947         1.850785         0.068801
 H         2.249389        -0.577244         2.068988
 H         3.050419        -2.809483         1.078596
 H         2.895167        -2.660345        -1.591410
 H         4.206600         0.074607        -0.820612
 H         4.020634        -0.796821        -2.532577
 H         1.597119         0.186090        -2.983866
