19
Iteration:  1175charge 0 multiplicity 1
 C        -0.009734        -0.027173        -0.121767
 C         1.475617         0.044837         0.021497
 O         1.871401         1.402289         0.320562
 C         2.046495        -1.080552         1.064788
 C         3.070147        -1.904988         0.596411
 C         3.027447        -1.789657        -0.960045
 C         3.775198        -0.494175        -1.439883
 C         2.182055        -0.624681        -1.281377
 O         1.522609        -0.509354        -2.536523
 H        -0.335968         0.656880        -0.919906
 H        -0.530280        -0.941335        -0.110103
 H        -0.574164         0.433529         0.798832
 H         2.809592         1.410492         0.610372
 H         1.647808        -1.038480         2.060775
 H         3.567458        -2.650438         1.170295
 H         3.108093        -2.773811        -1.415990
 H         4.470297        -0.011385        -0.743746
 H         4.043506        -0.404344        -2.452366
 H         1.793649         0.354921        -2.882951
