19
Iteration:  4694
 C         0.096016        -0.215416         0.070180
 C         1.606136        -0.066217         0.027916
 O         1.899993         1.337522         0.248597
 C         2.222436        -0.930039         1.112737
 C         2.948496        -1.920870         0.463462
 C         3.038343        -1.768714        -1.019810
 C         3.639595        -0.551681        -1.378439
 C         2.098515        -0.602822        -1.296798
 O         1.482848        -0.190041        -2.529631
 H        -0.360553        -1.250006        -0.179062
 H        -0.217787        -0.077783         1.083385
 H        -0.537631         0.551692        -0.582177
 H         2.714871         1.533891        -0.325539
 H         2.032090        -0.788875         2.192138
 H         3.507269        -2.744778         1.036865
 H         2.840725        -2.750069        -1.557891
 H         4.189619        -0.053736        -0.501569
 H         4.120946        -0.380928        -2.371351
 H         0.906902        -0.906490        -2.833797
