19
Iteration:   227
 C        -0.046316        -0.157052        -0.087182
 C         1.504710         0.007287         0.026612
 O         1.949773         1.344540         0.122212
 C         2.053105        -0.946543         1.108911
 C         2.843769        -1.857805         0.539954
 C         3.134092        -1.800742        -0.925061
 C         3.775181        -0.540083        -1.389531
 C         2.267643        -0.606151        -1.279757
 O         1.453018        -0.367444        -2.416777
 H        -0.646202         0.201973         0.759625
 H        -0.337949         0.430971        -0.941567
 H        -0.193705        -1.268923        -0.205371
 H         2.792822         1.261106         0.659524
 H         1.701493        -0.986039         2.115240
 H         3.369003        -2.597271         1.162612
 H         3.305419        -2.712768        -1.533227
 H         4.236719        -0.068316        -0.547457
 H         4.174221        -0.513200        -2.420327
 H         1.876343         0.246898        -3.048398
