19
Iteration:  1858charge 0 multiplicity 1
 C        -0.025817        -0.086340         0.145532
 C         1.567217        -0.046421        -0.003221
 O         1.835837         1.431296         0.194394
 C         2.169267        -0.937130         1.042604
 C         2.930175        -1.943176         0.537777
 C         3.059253        -1.879996        -0.945821
 C         3.666110        -0.586131        -1.488983
 C         2.220923        -0.501312        -1.317671
 O         1.517194        -0.435072        -2.498044
 H        -0.325649         0.921805        -0.135580
 H        -0.432643        -0.752317        -0.575639
 H        -0.341976        -0.265597         1.201789
 H         2.793203         1.515351         0.564798
 H         2.025389        -0.908292         2.148467
 H         3.480360        -2.643432         1.152048
 H         2.898723        -2.718618        -1.599071
 H         4.225663         0.032288        -0.762149
 H         4.017284        -0.702160        -2.496807
 H         2.072965         0.158109        -3.070225
