19
Iteration:    65charge 0 multiplicity 1
 C        -0.019625        -0.055913        -0.088565
 C         1.559076        -0.031715         0.063002
 O         2.026660         1.372098         0.271944
 C         2.132832        -1.074620         1.125316
 C         2.927132        -2.042075         0.549991
 C         2.991014        -1.754390        -0.921976
 C         3.706897        -0.382064        -1.436276
 C         2.198610        -0.524630        -1.285873
 O         1.450367        -0.466878        -2.478329
 H        -0.611011         0.680620         0.434651
 H        -0.229342         0.127407        -1.133786
 H        -0.437519        -1.029278         0.285633
 H         1.402513         1.812651        -0.336630
 H         2.230514        -0.799490         2.150452
 H         3.431932        -2.835769         1.060654
 H         3.203529        -2.586745        -1.557646
 H         4.349356         0.244122        -0.786497
 H         4.137546        -0.425146        -2.408458
 H         2.054221        -0.478209        -3.246514
