19
Iteration:  3093charge 0 multiplicity 1
 C        -0.061183        -0.090715        -0.066595
 C         1.501855        -0.066159         0.017341
 O         1.986320         1.357251         0.465480
 C         2.165707        -0.966915         1.029049
 C         3.080325        -1.803794         0.548507
 C         3.028546        -1.801665        -0.933393
 C         3.616061        -0.491242        -1.558891
 C         2.191858        -0.562202        -1.320973
 O         1.473264        -0.567906        -2.479221
 H        -0.498712         0.701413        -0.687119
 H        -0.350332        -1.111655        -0.560198
 H        -0.366361         0.089467         0.965415
 H         1.664750         2.112158        -0.101149
 H         2.076314        -0.913421         2.091505
 H         3.814049        -2.332300         1.171231
 H         2.967757        -2.721358        -1.525522
 H         4.419844         0.065283        -0.982605
 H         3.861361        -0.488423        -2.577272
 H         1.895436         0.162684        -2.927838
