19
Iteration:   268charge 0 multiplicity 1
 C        -0.049047        -0.013122        -0.051201
 C         1.487307         0.023887         0.035194
 O         1.849787         1.432660         0.385824
 C         2.226634        -0.981205         1.069861
 C         2.877732        -2.000325         0.541033
 C         3.027101        -1.824604        -0.992945
 C         3.675176        -0.518204        -1.339619
 C         2.178883        -0.477142        -1.283616
 O         1.717855        -0.603103        -2.629804
 H        -0.565927         0.801918         0.402425
 H        -0.366736        -0.137747        -1.085644
 H        -0.543973        -0.922399         0.502421
 H         2.498543         1.770869        -0.192356
 H         1.967667        -0.779030         2.084823
 H         3.486933        -2.774604         0.991381
 H         2.970638        -2.705901        -1.647572
 H         4.285621         0.010354        -0.518744
 H         4.097397        -0.404278        -2.353416
 H         1.122971         0.161977        -2.804050
