19
Iteration:  1957charge 0 multiplicity 1
 C         0.054843         0.042843         0.246570
 C         1.548617        -0.056430        -0.024791
 O         1.839033         1.331896         0.181872
 C         2.167584        -0.987574         0.991454
 C         2.856266        -1.983474         0.515996
 C         3.019783        -1.744218        -0.961970
 C         3.807666        -0.526509        -1.295278
 C         2.190129        -0.537190        -1.338820
 O         1.428842        -0.489200        -2.589918
 H        -0.529002         0.750779        -0.251256
 H        -0.420063        -0.971540         0.160137
 H         0.171120         0.116665         1.306694
 H         2.720644         1.572606        -0.196518
 H         1.790213        -0.899366         2.032151
 H         3.735160        -2.441074         0.965416
 H         2.925898        -2.522857        -1.759170
 H         4.349793         0.084910        -0.531585
 H         4.252652        -0.582324        -2.283173
 H         2.080366        -0.273316        -3.299622
