19
Iteration:    17
 C        -0.044246        -0.108917         0.039462
 C         1.499510        -0.030956        -0.017729
 O         1.939961         1.401021         0.294234
 C         2.100274        -1.011345         1.029956
 C         2.900214        -1.920218         0.520932
 C         3.101978        -1.746938        -0.968919
 C         3.827923        -0.533066        -1.340017
 C         2.279654        -0.460277        -1.359855
 O         1.384246        -0.461591        -2.606709
 H        -0.332353         0.526853         0.929512
 H        -0.573779         0.384275        -0.799006
 H        -0.418563        -1.100330         0.349737
 H         2.444141         1.241144         1.081128
 H         2.041963        -0.735356         2.110127
 H         3.752433        -2.327224         1.110221
 H         3.100963        -2.606795        -1.678513
 H         4.370253         0.090359        -0.611016
 H         4.366798        -0.551586        -2.318579
 H         1.187409        -1.393968        -2.814805
