19
Iteration:  2012
 C         0.107553        -0.111478        -0.095704
 C         1.619626        -0.092203         0.047354
 O         1.940371         1.397778         0.223646
 C         2.145216        -0.969746         1.077616
 C         2.945894        -1.948529         0.539933
 C         2.941467        -1.778707        -0.914583
 C         3.679705        -0.502100        -1.459978
 C         2.259447        -0.522918        -1.323512
 O         1.319877        -0.347264        -2.385950
 H        -0.291521         0.534265        -0.849399
 H        -0.196159        -1.186149        -0.324460
 H        -0.395763         0.139400         0.787401
 H         2.831253         1.467164         0.468952
 H         2.171087        -0.647011         2.061557
 H         3.438268        -2.794464         0.999997
 H         3.076815        -2.676967        -1.575742
 H         4.325667        -0.017230        -0.786944
 H         4.266746        -0.626929        -2.405836
 H         1.327737        -1.069990        -3.010778
