19
Iteration:   102
 C         0.060152        -0.122703        -0.049476
 C         1.600210        -0.030449        -0.055653
 O         1.980977         1.341675         0.116265
 C         2.053817        -0.969598         0.998262
 C         2.843152        -1.905287         0.573854
 C         3.057620        -1.824579        -0.948823
 C         3.744044        -0.452511        -1.297123
 C         2.256333        -0.635984        -1.318817
 O         1.408850        -0.429987        -2.413650
 H        -0.300341        -0.051374         1.019251
 H        -0.361263         0.673676        -0.708134
 H        -0.196242        -1.039102        -0.498459
 H         1.985016         1.503626         1.115989
 H         2.133220        -0.505116         2.003866
 H         3.390876        -2.556854         1.299068
 H         3.222194        -2.696229        -1.624353
 H         4.231218         0.064941        -0.500362
 H         4.095715        -0.426711        -2.368892
 H         1.292814         0.542711        -2.599593
