19
Iteration:  2313charge 0 multiplicity 1
 C        -0.041529         0.053738         0.192238
 C         1.525782         0.035115         0.012813
 O         1.847501         1.413472         0.358831
 C         2.117851        -1.061198         1.029229
 C         2.977166        -1.914520         0.472488
 C         3.052886        -1.761959        -1.025800
 C         3.756715        -0.538941        -1.492686
 C         2.226597        -0.552210        -1.308099
 O         1.507805        -0.643174        -2.629319
 H        -0.661834         0.516950        -0.524058
 H        -0.421393        -0.931074         0.591464
 H        -0.231274         0.692500         1.057100
 H         2.797648         1.502186         0.635800
 H         2.075187        -0.887060         2.191614
 H         3.526232        -2.753514         1.015540
 H         2.947280        -2.678190        -1.554694
 H         4.415587         0.103004        -0.815727
 H         4.052850        -0.384334        -2.499648
 H         1.539216         0.176697        -3.123299
