19
Iteration:   641
 C         0.017870        -0.137976        -0.063934
 C         1.592500         0.018418         0.038776
 O         1.967278         1.399612         0.157199
 C         2.122262        -0.930520         1.080237
 C         2.749346        -1.959991         0.526281
 C         3.026308        -1.692048        -0.923877
 C         3.731543        -0.421661        -1.337046
 C         2.234622        -0.538549        -1.250493
 O         1.566986        -0.543242        -2.527591
 H        -0.526618        -0.223504         0.922384
 H        -0.245570         0.783337        -0.626432
 H        -0.152597        -0.982245        -0.679721
 H         2.274394         1.637271         1.069327
 H         1.704148        -0.957320         2.104537
 H         3.037600        -2.927986         1.007464
 H         3.076131        -2.523398        -1.698461
 H         4.230222         0.238220        -0.667029
 H         4.179296        -0.500036        -2.379518
 H         1.302208        -1.478671        -2.753863
