19
Iteration:  2023
 C         0.119307        -0.094837        -0.170459
 C         1.654437         0.065249        -0.060780
 O         1.877084         1.393247         0.362314
 C         2.156669        -0.990408         1.123224
 C         2.950307        -1.903775         0.528668
 C         2.962889        -1.810726        -0.976483
 C         3.826720        -0.562846        -1.468305
 C         2.217829        -0.550519        -1.333342
 O         1.262521        -0.368783        -2.373196
 H        -0.472690         0.408108        -0.885643
 H        -0.056143        -1.211542        -0.265606
 H        -0.153960         0.139329         0.817288
 H         2.817533         1.522384         0.444951
 H         1.956824        -0.751087         2.114346
 H         3.500059        -2.664880         1.079910
 H         2.799354        -2.777897        -1.527438
 H         4.393836        -0.057529        -0.749526
 H         4.181596        -0.772998        -2.519366
 H         1.247601        -1.225606        -2.823699
