19
Iteration:  1730charge 0 multiplicity 1
 C         0.000011        -0.061418        -0.017791
 C         1.561764         0.035301         0.001055
 O         1.939394         1.347489         0.359960
 C         2.172178        -0.924659         1.050641
 C         2.936517        -1.867192         0.558145
 C         2.891334        -1.811838        -0.986512
 C         3.811505        -0.586766        -1.397026
 C         2.258953        -0.596526        -1.335704
 O         1.435853        -0.507971        -2.602841
 H        -0.374606         0.079739        -1.027066
 H        -0.350313        -0.965821         0.521162
 H        -0.363219         0.741426         0.672453
 H         1.587937         1.355267         1.268551
 H         2.174040        -0.663189         2.162640
 H         3.651908        -2.594284         0.994138
 H         2.965704        -2.605442        -1.743715
 H         4.494501         0.032823        -0.816413
 H         4.184412        -0.612497        -2.398362
 H         1.552497         0.361725        -3.009648
