19
Iteration:  3549charge 0 multiplicity 1
 C         0.032091        -0.229293        -0.069272
 C         1.589127         0.030676         0.076016
 O         1.798842         1.409109         0.358625
 C         2.280326        -0.887807         1.090153
 C         2.998161        -1.858793         0.549686
 C         2.896020        -1.791827        -0.955185
 C         3.734826        -0.660180        -1.570289
 C         2.278572        -0.503417        -1.277237
 O         1.513905        -0.419521        -2.493097
 H        -0.147168         0.038176        -1.046173
 H        -0.135563        -1.366890         0.125858
 H        -0.456627         0.190025         0.788228
 H         0.851333         1.854973         0.388322
 H         1.972483        -0.891960         2.112220
 H         3.393932        -2.796273         1.058031
 H         2.808931        -2.723086        -1.504506
 H         4.306283        -0.051421        -0.863160
 H         3.961726        -0.693543        -2.658289
 H         1.852116         0.230809        -3.152802
