19
Iteration:  3644
 C         0.047551        -0.229254         0.009103
 C         1.597579        -0.050433         0.005520
 O         1.855013         1.395969         0.127879
 C         2.138798        -0.928973         1.052366
 C         2.897184        -1.950524         0.500158
 C         3.041708        -1.713205        -0.995653
 C         3.827918        -0.471184        -1.340654
 C         2.224973        -0.528355        -1.233090
 O         1.458157        -0.475550        -2.411766
 H        -0.332658         0.830830        -0.474543
 H        -0.336060        -1.135021        -0.487234
 H        -0.285504        -0.320515         1.132730
 H         2.491673         1.611794        -0.570870
 H         1.733111        -0.878016         2.055609
 H         3.193921        -2.880157         1.091839
 H         2.983481        -2.559727        -1.674888
 H         4.554156        -0.200444        -0.552637
 H         3.885321        -0.265451        -2.463248
 H         0.911454         0.343317        -2.270919
