19
Iteration:  2648charge 0 multiplicity 1
 C        -0.022556        -0.034073        -0.056094
 C         1.564749         0.010000         0.072113
 O         1.902439         1.304139         0.443284
 C         2.212212        -0.917787         1.122192
 C         2.974468        -1.864272         0.525430
 C         2.951904        -1.740363        -0.888770
 C         3.681112        -0.576474        -1.575849
 C         2.144864        -0.476213        -1.326315
 O         1.509614        -0.602503        -2.607140
 H        -0.393417         0.201286        -1.017022
 H        -0.309519        -1.132630         0.202566
 H        -0.234242         0.709914         0.732895
 H         2.780267         1.483829         0.877313
 H         2.090864        -0.922788         2.168335
 H         3.675993        -2.488385         1.070226
 H         2.887279        -2.522172        -1.700581
 H         4.392170         0.075872        -1.049383
 H         3.844706        -0.717230        -2.664922
 H         1.700101         0.081667        -3.248850
