19
Iteration:  2086charge 0 multiplicity 1
 C         0.051330        -0.057182         0.107823
 C         1.559995        -0.015423         0.047584
 O         1.902060         1.376646         0.251844
 C         2.162591        -0.954285         1.032388
 C         3.003988        -1.863569         0.523834
 C         2.975297        -1.851858        -0.976221
 C         3.643467        -0.465809        -1.361325
 C         2.163549        -0.598389        -1.314268
 O         1.536845        -0.491546        -2.614496
 H        -0.220195         0.763478        -0.539564
 H        -0.424641        -1.019487        -0.246609
 H        -0.362969         0.317385         1.080829
 H         2.879338         1.472745         0.352341
 H         2.121475        -0.799905         2.045199
 H         3.345087        -2.771637         0.953513
 H         2.979301        -2.720251        -1.701988
 H         4.283507        -0.007935        -0.682233
 H         4.198934        -0.610559        -2.321945
 H         0.571057        -0.296074        -2.643027
