19
Iteration:   272
 C        -0.066624        -0.052289        -0.041140
 C         1.475493        -0.005309         0.062848
 O         1.861526         1.474818         0.396202
 C         2.205823        -0.966224         1.095046
 C         2.870440        -1.985986         0.486121
 C         3.002151        -1.820375        -1.016056
 C         3.690776        -0.499850        -1.339152
 C         2.213605        -0.503979        -1.292021
 O         1.735561        -0.610263        -2.611893
 H        -0.586796         0.875810         0.342632
 H        -0.357711        -0.062643        -1.104324
 H        -0.529374        -0.836793         0.510360
 H         2.576923         1.791800        -0.252389
 H         1.980104        -0.828526         2.160100
 H         3.445615        -2.768253         1.016074
 H         3.032073        -2.721072        -1.654682
 H         4.188163        -0.028278        -0.569943
 H         4.038498        -0.505260        -2.390190
 H         1.080993         0.064738        -2.852592
