19
Iteration:  2549charge 0 multiplicity 1
 C         0.057470        -0.141406         0.167359
 C         1.560016         0.089483        -0.062868
 O         1.837066         1.454607         0.338135
 C         2.228602        -0.871285         0.951787
 C         2.900732        -1.925190         0.504853
 C         2.923475        -1.841992        -0.978402
 C         3.759568        -0.597873        -1.353254
 C         2.192955        -0.577872        -1.376726
 O         1.521112        -0.581896        -2.571803
 H        -0.344218         0.834931        -0.141670
 H        -0.398206        -0.999361        -0.498983
 H        -0.252667        -0.230022         1.292326
 H         2.817093         1.497688         0.355737
 H         1.899042        -0.593708         1.981539
 H         3.409236        -2.461371         1.295710
 H         2.794651        -2.623079        -1.675100
 H         4.364635        -0.074485        -0.641457
 H         4.209972        -0.473142        -2.386785
 H         1.406794         0.357408        -2.864772
