19
Iteration:  1327
 C         0.040358        -0.267546        -0.152513
 C         1.626710         0.038468         0.029190
 O         1.957553         1.362009         0.213306
 C         2.159162        -0.898553         1.123617
 C         2.769247        -1.910955         0.538738
 C         2.947534        -1.725627        -0.912304
 C         3.799968        -0.530641        -1.477866
 C         2.287531        -0.530580        -1.221604
 O         1.456109        -0.457504        -2.414721
 H        -0.288027         0.231197        -1.062214
 H        -0.114054        -1.207066        -0.590047
 H        -0.712660         0.035771         0.650019
 H         1.926587         1.503360         1.154907
 H         1.953293        -0.663486         2.207057
 H         3.154236        -2.787141         1.081887
 H         2.870876        -2.554015        -1.621460
 H         4.609562        -0.044895        -1.098503
 H         3.967892        -0.679889        -2.555501
 H         1.566258         0.411349        -2.849433
