19
Iteration:  3800charge 0 multiplicity 1
 C        -0.003151        -0.116601         0.075485
 C         1.523723        -0.059017         0.003783
 O         1.970020         1.354657         0.302857
 C         2.186450        -0.890981         1.033639
 C         2.910420        -1.803420         0.493672
 C         3.017445        -1.796324        -1.060360
 C         3.716679        -0.484907        -1.398807
 C         2.222922        -0.598214        -1.304809
 O         1.485263        -0.587506        -2.517605
 H        -0.224301         0.901524        -0.130320
 H        -0.545942        -0.852179        -0.703332
 H        -0.195400        -0.357394         1.104530
 H         1.168556         1.764864         0.661347
 H         1.850924        -0.818698         2.118885
 H         3.595041        -2.331245         1.108022
 H         3.000657        -2.679842        -1.686560
 H         4.320109        -0.013424        -0.645765
 H         4.154108        -0.265723        -2.306464
 H         1.817123         0.172304        -2.983234
