19
Iteration:  2537charge 0 multiplicity 1
 C         0.010954        -0.084912         0.086057
 C         1.557443         0.009398        -0.017968
 O         1.804416         1.420655         0.334229
 C         2.255680        -0.831261         1.053787
 C         2.917054        -1.877595         0.546453
 C         2.916051        -1.857931        -0.979793
 C         3.761772        -0.664399        -1.439709
 C         2.239644        -0.528206        -1.343493
 O         1.487105        -0.514546        -2.598740
 H        -0.714370         0.661870        -0.334154
 H        -0.302852        -1.067467        -0.313282
 H        -0.084209        -0.201040         1.229615
 H         2.709946         1.516626         0.563621
 H         2.200810        -0.640186         2.184683
 H         3.668818        -2.626424         0.893130
 H         2.788945        -2.753860        -1.529366
 H         4.264605        -0.188078        -0.588529
 H         4.189622        -0.638079        -2.419346
 H         1.816733         0.269208        -3.106864
