19
Iteration:  2185
 C         0.087405        -0.215468         0.033222
 C         1.607327         0.034094         0.048799
 O         1.749571         1.388921         0.466713
 C         2.276912        -0.726940         1.014975
 C         2.909973        -1.800734         0.580815
 C         2.843797        -1.848007        -0.996542
 C         3.763089        -0.767947        -1.487428
 C         2.272155        -0.462126        -1.414188
 O         1.456094        -0.464499        -2.614276
 H        -0.310730         0.346068        -0.829212
 H        -0.312778        -1.321243        -0.135843
 H        -0.327060         0.171180         0.986909
 H         2.670630         1.439940         0.916584
 H         2.206157        -0.772772         2.130776
 H         3.626762        -2.395493         1.232165
 H         2.537936        -2.664384        -1.622371
 H         4.366796        -0.384143        -0.680783
 H         4.155544        -0.884043        -2.488401
 H         2.071437        -0.062524        -3.289047
