19
Iteration:  2647charge 0 multiplicity 1
 C        -0.025794        -0.037280        -0.055991
 C         1.556586         0.011109         0.060451
 O         1.907304         1.296830         0.440293
 C         2.209774        -0.922022         1.123807
 C         2.980668        -1.857965         0.527244
 C         2.959328        -1.737241        -0.888082
 C         3.683668        -0.579153        -1.559665
 C         2.150712        -0.474599        -1.329571
 O         1.498499        -0.598037        -2.604584
 H        -0.384359         0.224301        -0.997768
 H        -0.317185        -1.094853         0.186467
 H        -0.236297         0.723987         0.729063
 H         2.762947         1.446006         0.836124
 H         2.138858        -0.911919         2.178054
 H         3.649905        -2.505936         1.048843
 H         2.918805        -2.513738        -1.682215
 H         4.362827         0.060469        -1.051704
 H         3.845403        -0.727466        -2.677253
 H         1.694909         0.089442        -3.257534
