19
Iteration:   488
 C        -0.068153        -0.089546        -0.015922
 C         1.523124        -0.034970        -0.026383
 O         1.807690         1.371628         0.142099
 C         2.178032        -0.885138         1.133747
 C         2.922678        -1.916365         0.621311
 C         3.036098        -1.825308        -0.908821
 C         3.741200        -0.548705        -1.433019
 C         2.226482        -0.650965        -1.304244
 O         1.655593        -0.285614        -2.538213
 H        -0.300921        -0.612646         0.997802
 H        -0.327350         0.999919         0.181873
 H        -0.536335        -0.617707        -0.823720
 H         2.834254         1.358055         0.332477
 H         1.649863        -1.134375         2.063866
 H         3.187867        -2.799433         1.198148
 H         3.014861        -2.808268        -1.308603
 H         4.306630         0.078632        -0.645808
 H         4.108548        -0.612173        -2.430050
 H         1.055526        -0.991753        -2.819989
