19
Iteration:  1546charge 0 multiplicity 1
 C         0.089585        -0.111615         0.051946
 C         1.582422        -0.058574         0.019986
 O         2.003935         1.339452         0.090643
 C         2.143631        -1.020898         1.061502
 C         2.872653        -2.043629         0.546196
 C         2.936752        -1.745439        -0.980516
 C         3.745691        -0.433330        -1.258723
 C         2.167248        -0.560883        -1.268626
 O         1.436024        -0.349220        -2.486908
 H        -0.183046         0.263805        -0.885711
 H        -0.327659        -1.107281         0.148194
 H        -0.409503         0.309510         0.872593
 H         1.343535         1.942811        -0.447196
 H         2.100231        -0.941629         2.093893
 H         3.279937        -2.858501         1.112615
 H         3.118120        -2.680740        -1.518238
 H         4.424901         0.007543        -0.620673
 H         4.148530        -0.430691        -2.323833
 H         2.124060         0.154284        -2.935567
