19
Iteration:   337
 C        -0.027971        -0.057478        -0.162113
 C         1.566353        -0.082554         0.075596
 O         1.893870         1.327470         0.152575
 C         2.096571        -0.954533         1.182557
 C         2.913665        -1.903120         0.559624
 C         3.120412        -1.845183        -0.942778
 C         3.671779        -0.482239        -1.369620
 C         2.211277        -0.659298        -1.301549
 O         1.461596        -0.324789        -2.475130
 H        -0.608410         0.866068         0.210165
 H        -0.052859        -0.330858        -1.231752
 H        -0.438481        -0.941811         0.292698
 H         2.693135         1.350055         0.805157
 H         1.976482        -1.011254         2.325504
 H         3.611441        -2.553590         1.136075
 H         3.291708        -2.600464        -1.696730
 H         4.107800         0.007219        -0.543717
 H         4.069724        -0.163345        -2.331382
 H         2.141701        -0.040913        -3.090313
