19
Iteration:   221charge 0 multiplicity 1
 C        -0.025376        -0.149870        -0.116224
 C         1.488536         0.007953         0.036162
 O         1.975237         1.344342         0.087050
 C         2.060339        -0.974358         1.053527
 C         2.884106        -1.897418         0.589200
 C         3.122300        -1.791115        -0.901092
 C         3.764510        -0.510077        -1.390868
 C         2.255749        -0.586313        -1.248601
 O         1.443238        -0.359098        -2.408687
 H        -0.660961        -0.060258         0.816910
 H        -0.519722         0.417088        -0.959500
 H        -0.162461        -1.172859        -0.378646
 H         2.714246         1.461979         0.779774
 H         1.792675        -1.022407         2.140448
 H         3.186814        -2.720519         1.241370
 H         3.074983        -2.736206        -1.438047
 H         4.407173         0.018853        -0.651960
 H         3.998494        -0.497186        -2.467932
 H         1.983724         0.177919        -2.987572
