19
Iteration:   782charge 0 multiplicity 1
 C         0.077414        -0.158890         0.007116
 C         1.614836         0.013813         0.046804
 O         1.797732         1.484677         0.114854
 C         2.123884        -0.857919         1.101206
 C         2.652272        -1.946429         0.433465
 C         3.092221        -1.853117        -0.956364
 C         3.788088        -0.548587        -1.339238
 C         2.286296        -0.607990        -1.268467
 O         1.614442        -0.430106        -2.460974
 H        -0.303991         0.692762         0.580577
 H        -0.387729        -0.043762        -0.993371
 H        -0.238994        -1.022856         0.508822
 H         2.819524         1.651911         0.106463
 H         1.698064        -0.911677         2.125026
 H         2.744069        -2.917198         0.933297
 H         3.244921        -2.649737        -1.675450
 H         4.279163        -0.007770        -0.446935
 H         4.220139        -0.297195        -2.264430
 H         0.828791        -1.038337        -2.419341
