19
Iteration:   246charge 0 multiplicity 1
 C         0.053215        -0.076134        -0.068695
 C         1.535828        -0.110420        -0.067160
 O         1.835781         1.327644         0.304982
 C         2.115557        -0.946998         1.034614
 C         2.889599        -1.884838         0.589964
 C         2.980641        -1.789678        -0.928298
 C         3.778878        -0.487097        -1.291249
 C         2.265534        -0.575406        -1.352617
 O         1.494810        -0.465870        -2.558241
 H        -0.206758         0.693259         0.632069
 H        -0.396659         0.204273        -1.014237
 H        -0.490585        -0.992341         0.380339
 H         2.818879         1.552400         0.118780
 H         1.940745        -0.617091         2.047072
 H         3.429819        -2.616237         1.183709
 H         3.119992        -2.688640        -1.516848
 H         4.244095         0.119108        -0.432325
 H         4.246813        -0.622626        -2.253579
 H         1.680369         0.429205        -2.877828
