19
Iteration:  4622charge 0 multiplicity 1
 C         0.028242         0.077927        -0.071449
 C         1.531654        -0.064242        -0.023566
 O         2.042666         1.284594         0.537592
 C         2.131734        -1.101943         1.068129
 C         2.969363        -1.910965         0.546698
 C         3.101649        -1.685860        -0.979015
 C         3.644106        -0.219178        -1.571382
 C         2.209229        -0.542459        -1.366583
 O         1.381270        -0.737173        -2.557453
 H        -0.459326        -0.852577        -0.076862
 H        -0.320438         0.531447         0.918935
 H        -0.363152         0.743194        -0.807182
 H         2.956444         1.177998         0.932201
 H         1.776382        -1.051149         2.068419
 H         3.571131        -2.734581         0.912475
 H         3.000434        -2.428529        -1.859876
 H         3.988630         0.377143        -0.763698
 H         4.152256        -0.301974        -2.496344
 H         0.641681        -0.060465        -2.527316
