19
Iteration:  3948
 C        -0.011006        -0.226740         0.073336
 C         1.573538        -0.055962         0.035295
 O         1.983016         1.331126         0.143317
 C         2.235331        -0.948157         1.112775
 C         2.934518        -1.876497         0.484754
 C         3.020338        -1.735496        -0.975618
 C         3.731548        -0.492108        -1.391947
 C         2.173103        -0.545656        -1.338141
 O         1.389208        -0.430823        -2.466953
 H        -0.360095         0.833587        -0.144622
 H        -0.274067        -0.823251        -0.715671
 H        -0.379038        -0.643082         1.019256
 H         1.246371         1.763031         0.700145
 H         2.053330        -0.913564         2.196722
 H         3.475287        -2.551573         1.034715
 H         3.173420        -2.561229        -1.646193
 H         4.329861         0.078559        -0.539009
 H         4.226211        -0.362178        -2.368440
 H         1.780381         0.149146        -3.152343
