19
Iteration:  4326
 C         0.056274         0.047103        -0.121600
 C         1.532360        -0.112775         0.064379
 O         1.993681         1.232779         0.439778
 C         2.048655        -1.044294         1.078065
 C         3.041076        -1.901681         0.496544
 C         3.166063        -1.730613        -0.993611
 C         3.669010        -0.262314        -1.510862
 C         2.228395        -0.582555        -1.385358
 O         1.325431        -0.602406        -2.468867
 H        -0.507996        -0.743016        -0.808075
 H        -0.488059         0.048093         0.875083
 H        -0.257040         1.107645        -0.555336
 H         2.899064         1.159212         0.559313
 H         1.817424        -0.903477         2.131315
 H         3.453420        -2.722675         1.088959
 H         3.522409        -2.554675        -1.542181
 H         3.993463         0.626626        -0.837300
 H         4.114926        -0.219388        -2.540659
 H         0.560628        -0.041439        -2.218536
