19
Iteration:  2521charge 0 multiplicity 1
 C         0.042620        -0.159288         0.015710
 C         1.567624         0.008821         0.077289
 O         1.782297         1.370049         0.260755
 C         2.268826        -0.869113         1.138226
 C         2.985338        -1.864528         0.533789
 C         2.874610        -1.805127        -0.950958
 C         3.706100        -0.683601        -1.521656
 C         2.196728        -0.533622        -1.311241
 O         1.509522        -0.395096        -2.513662
 H        -0.125260         0.602242        -0.742941
 H        -0.340739        -1.163766        -0.224971
 H        -0.555134         0.154870         0.817151
 H         2.614137         1.493335         0.645092
 H         2.331572        -0.546863         2.142323
 H         3.430037        -2.587621         1.183109
 H         2.846148        -2.792161        -1.527219
 H         4.540047        -0.185266        -1.023098
 H         3.915417        -0.966356        -2.610895
 H         2.076707         0.084024        -3.166786
