19
Iteration:  4801charge 0 multiplicity 1
 C         0.026398        -0.298486         0.030331
 C         1.551747        -0.042199         0.012581
 O         1.899649         1.339480         0.225313
 C         2.243356        -0.948669         1.117396
 C         2.997974        -1.848126         0.442067
 C         2.847967        -1.731777        -1.018800
 C         3.681628        -0.549811        -1.433370
 C         2.149831        -0.566965        -1.266343
 O         1.547865        -0.299029        -2.442145
 H        -0.171676        -1.114784        -0.676982
 H        -0.355748        -0.422691         0.976414
 H        -0.415654         0.594039        -0.384848
 H         2.858805         1.443765         0.010169
 H         2.075773        -0.990214         2.168992
 H         3.671288        -2.607745         0.906979
 H         2.923244        -2.702285        -1.574621
 H         4.266011        -0.065212        -0.566094
 H         4.136487        -0.572952        -2.466000
 H         0.976351         0.439067        -2.315456
