19
Iteration:  3936
 C        -0.032949        -0.213495         0.167780
 C         1.495833        -0.012712         0.100394
 O         1.901379         1.386887         0.124401
 C         2.221796        -0.933568         1.118179
 C         2.949155        -1.930425         0.448980
 C         3.009902        -1.822484        -1.050582
 C         3.797536        -0.480806        -1.403677
 C         2.254213        -0.523811        -1.293932
 O         1.449686        -0.410001        -2.522497
 H        -0.791907         0.590512        -0.148885
 H        -0.333302        -1.034471        -0.358644
 H        -0.324688        -0.436840         1.237261
 H         1.174707         1.990475         0.432679
 H         2.071012        -0.866564         2.229707
 H         3.557456        -2.712920         0.849150
 H         3.118914        -2.760824        -1.552263
 H         4.614434        -0.225106        -0.559586
 H         4.136949        -0.573369        -2.467643
 H         1.929755         0.220073        -3.128272
