19
Iteration:  4719
 C         0.081056        -0.309335         0.150677
 C         1.551228         0.013078         0.040948
 O         1.794938         1.396729         0.232631
 C         2.319696        -0.905529         1.047063
 C         2.891699        -2.032039         0.462375
 C         2.798928        -1.887505        -0.986544
 C         3.677946        -0.480345        -1.467351
 C         2.218690        -0.474686        -1.271550
 O         1.644830        -0.189773        -2.509525
 H        -0.070676        -1.407569         0.300337
 H        -0.546206         0.223381         1.016008
 H        -0.493098        -0.116426        -0.814620
 H         2.702054         1.469248         0.066532
 H         2.371455        -0.566573         2.052407
 H         3.498830        -2.723677         0.950467
 H         2.822675        -2.694865        -1.719165
 H         4.448180        -0.094416        -0.897417
 H         3.976984        -0.796950        -2.431967
 H         0.896915        -0.857810        -2.584038
