19
Iteration:  3070
 C         0.087773        -0.132672        -0.014213
 C         1.619692        -0.020504         0.033084
 O         1.915080         1.315334         0.307449
 C         2.233839        -0.875264         1.045381
 C         2.892865        -1.937683         0.522836
 C         3.053176        -1.728984        -0.986758
 C         3.745393        -0.457807        -1.382111
 C         2.210769        -0.544191        -1.367999
 O         1.330901        -0.580353        -2.469750
 H        -0.359967         0.658348        -0.571766
 H        -0.113617        -1.105250        -0.613500
 H        -0.281584        -0.031717         1.039272
 H         1.364293         1.894217        -0.281192
 H         2.134089        -0.715394         2.126093
 H         3.273223        -2.773468         1.104636
 H         3.182173        -2.505697        -1.673340
 H         4.278666         0.064447        -0.567047
 H         4.327527        -0.466806        -2.268683
 H         1.252726         0.388229        -2.680655
