19
Iteration:  2451charge 0 multiplicity 1
 C         0.080600        -0.166784         0.236741
 C         1.576150        -0.001545         0.013236
 O         1.842051         1.453140         0.145945
 C         2.226899        -0.924317         1.035084
 C         2.864506        -1.950985         0.479022
 C         2.853854        -1.865252        -0.989357
 C         3.652657        -0.531853        -1.356309
 C         2.200424        -0.542092        -1.305077
 O         1.639134        -0.474983        -2.557919
 H        -0.420769         0.367133        -0.607542
 H        -0.072480        -1.247852         0.335765
 H        -0.265098         0.261168         1.246099
 H         2.765942         1.548064        -0.123871
 H         2.273777        -0.535486         2.111886
 H         3.085390        -2.924367         1.019648
 H         2.934325        -2.571852        -1.776188
 H         4.325990         0.066205        -0.679409
 H         4.004710        -0.460221        -2.355020
 H         1.320677         0.448812        -2.729744
