19
Iteration:   398charge 0 multiplicity 1
 C         0.106499        -0.165164        -0.045971
 C         1.602262         0.041613        -0.044993
 O         1.759215         1.480441         0.355020
 C         2.116257        -0.950881         1.046835
 C         2.834302        -1.966094         0.568188
 C         3.073928        -1.783257        -0.874575
 C         3.785715        -0.541056        -1.408207
 C         2.245737        -0.514662        -1.333097
 O         1.477889        -0.495681        -2.509145
 H        -0.411089        -0.199875         0.889847
 H        -0.384908         0.660925        -0.548550
 H        -0.220139        -1.047009        -0.721251
 H         2.690153         1.946717         0.233934
 H         1.717985        -0.877911         2.062140
 H         2.856378        -2.982421         1.020775
 H         3.159875        -2.685836        -1.542949
 H         4.508088         0.018772        -0.808060
 H         4.217428        -0.707212        -2.485228
 H         2.003760        -0.510619        -3.307264
