19
Iteration:  3328
 C        -0.037877        -0.192820         0.269780
 C         1.433886         0.059784         0.048687
 O         1.843500         1.378045         0.009680
 C         2.319771        -0.977093         1.014025
 C         2.981553        -2.003986         0.490512
 C         2.963425        -1.781152        -1.036151
 C         3.642253        -0.490653        -1.317098
 C         2.209619        -0.568719        -1.251228
 O         1.661665        -0.436961        -2.577527
 H        -0.628835         0.679176        -0.079581
 H        -0.373627        -1.130542        -0.169124
 H        -0.273735        -0.190402         1.378406
 H         1.479209         1.935163         0.721895
 H         2.227133        -0.689413         2.036814
 H         3.573753        -2.837070         1.010724
 H         2.914458        -2.726366        -1.685911
 H         4.319381         0.000969        -0.594204
 H         4.080058        -0.383333        -2.353781
 H         1.568370         0.545999        -2.602803
