19
Iteration:  2794charge 0 multiplicity 1
 C         0.035776        -0.199527        -0.045507
 C         1.626494         0.114199         0.097762
 O         1.771466         1.540161         0.391492
 C         2.316088        -0.916416         1.071208
 C         2.848747        -2.028026         0.509516
 C         2.969041        -1.865381        -1.004155
 C         3.688079        -0.570932        -1.509205
 C         2.258800        -0.454442        -1.342055
 O         1.492724        -0.564190        -2.502856
 H        -0.617995         0.720243        -0.446075
 H        -0.110957        -1.086062        -0.633259
 H        -0.192653        -0.382022         1.040560
 H         2.763723         1.736234         0.267177
 H         2.299326        -0.930884         2.169679
 H         3.319668        -2.698878         1.236200
 H         2.899845        -2.734887        -1.618985
 H         4.316182        -0.182073        -0.766671
 H         4.015026        -0.460132        -2.587278
 H         1.273702         0.262340        -2.990273
