19
Iteration:   883charge 0 multiplicity 1
 C         0.107720         0.029764        -0.078334
 C         1.588975         0.077469         0.007142
 O         1.892095         1.422385         0.200508
 C         1.987753        -0.962253         1.083209
 C         2.774655        -1.981566         0.554903
 C         3.084558        -1.770019        -0.928406
 C         3.807325        -0.470078        -1.354990
 C         2.219130        -0.579941        -1.315478
 O         1.567332        -0.636238        -2.508853
 H        -0.267464        -0.156043         0.954647
 H        -0.425338         0.844000        -0.472299
 H        -0.112754        -0.990003        -0.506670
 H         2.788160         1.570620         0.381268
 H         1.687941        -0.905341         2.123399
 H         3.143039        -2.913645         1.042919
 H         3.058848        -2.674105        -1.563683
 H         4.360290         0.091557        -0.673749
 H         4.069870        -0.169900        -2.434732
 H         0.624567        -0.584769        -2.323084
