19
Iteration:  2461
 C         0.055218        -0.233888         0.135910
 C         1.619417         0.026076        -0.016528
 O         1.858588         1.392477         0.153323
 C         2.254536        -0.868409         1.099341
 C         2.827611        -1.972986         0.553905
 C         2.917030        -1.788029        -1.002793
 C         3.744077        -0.568787        -1.409348
 C         2.193521        -0.514070        -1.319988
 O         1.498978        -0.412874        -2.517967
 H        -0.667992         0.091146        -0.701598
 H        -0.192945        -1.281896         0.310287
 H        -0.135331         0.427072         1.062120
 H         2.788223         1.600709        -0.161586
 H         2.206088        -0.694484         2.230050
 H         3.221387        -2.926656         1.059866
 H         2.762404        -2.702829        -1.563860
 H         4.410485        -0.318780        -0.532133
 H         4.187529        -0.549631        -2.359284
 H         1.472121         0.536444        -2.785560
