19
Iteration:  3953
 C         0.045046        -0.204872         0.026997
 C         1.596477        -0.075540         0.005134
 O         1.993526         1.310980         0.161243
 C         2.192949        -0.911666         1.069551
 C         2.972397        -1.904931         0.524411
 C         3.027089        -1.708418        -0.976538
 C         3.696518        -0.466370        -1.374114
 C         2.189921        -0.544627        -1.316429
 O         1.357393        -0.447928        -2.450776
 H        -0.348549         0.788776        -0.041136
 H        -0.354886        -0.863377        -0.878316
 H        -0.446330        -0.633561         0.911853
 H         1.390325         1.721104         0.785936
 H         2.101246        -0.863453         2.148710
 H         3.523086        -2.737644         1.113014
 H         3.037943        -2.587228        -1.661612
 H         3.996638         0.204295        -0.658608
 H         4.119913        -0.426316        -2.367076
 H         1.839395         0.193227        -3.015702
