19
Iteration:   188charge 0 multiplicity 1
 C         0.111895        -0.144641        -0.127598
 C         1.600586        -0.007103         0.057454
 O         1.940425         1.367019         0.190725
 C         2.143490        -0.902365         1.147079
 C         2.793995        -1.897692         0.561981
 C         2.995887        -1.801694        -0.918767
 C         3.778573        -0.537364        -1.382090
 C         2.218532        -0.571402        -1.335693
 O         1.426493        -0.458061        -2.496761
 H        -0.392825        -0.684842         0.719263
 H        -0.417303         0.825971        -0.313296
 H        -0.052302        -0.666838        -1.021459
 H         1.392587         1.779465         0.824490
 H         2.033173        -0.911671         2.246095
 H         3.316036        -2.664863         1.145132
 H         3.053926        -2.751857        -1.473604
 H         4.253636         0.058190        -0.650861
 H         4.405638        -0.487277        -2.304903
 H         1.935040         0.117055        -3.088465
