19
Iteration:  3203charge 0 multiplicity 1
 C         0.032009        -0.114241         0.178838
 C         1.540082        -0.015845        -0.022802
 O         2.005818         1.354168         0.232150
 C         2.144712        -0.940136         1.031904
 C         2.870668        -1.880276         0.510492
 C         3.151958        -1.757360        -1.016755
 C         3.658082        -0.430882        -1.342289
 C         2.227491        -0.609552        -1.317696
 O         1.490564        -0.590149        -2.580422
 H        -0.461870         0.753975        -0.443036
 H        -0.480428        -1.068133        -0.199809
 H        -0.291312         0.021627         1.207179
 H         1.141475         1.888606         0.157436
 H         1.721116        -0.658012         2.005981
 H         3.350092        -2.677804         1.074032
 H         3.290810        -2.699713        -1.691468
 H         4.200431         0.026234        -0.555610
 H         4.103443        -0.359058        -2.385167
 H         1.112803         0.328225        -2.647003
