19
Iteration:  1578
 C         0.057856        -0.138501        -0.059353
 C         1.652953         0.010040        -0.021023
 O         1.901939         1.446386         0.328586
 C         2.139094        -0.947840         0.956078
 C         2.828020        -1.998232         0.521866
 C         3.005438        -1.828336        -0.964390
 C         3.818035        -0.536999        -1.413544
 C         2.290558        -0.540883        -1.259688
 O         1.380609        -0.405349        -2.393133
 H        -0.292895         0.216969        -0.983012
 H        -0.207321        -1.143675        -0.049736
 H        -0.360502         0.468562         0.736935
 H         1.173934         2.040226         0.334275
 H         2.107723        -0.753448         1.961769
 H         3.006532        -2.930504         1.053942
 H         3.190082        -2.744899        -1.536366
 H         4.380864        -0.090432        -0.685221
 H         4.224022        -0.669361        -2.446319
 H         1.868969        -0.464719        -3.248413
