19
Iteration:  4421
 C         0.152353        -0.328274         0.111461
 C         1.600824        -0.045740         0.104454
 O         1.802583         1.422345         0.101247
 C         2.326668        -0.990194         1.133362
 C         2.835596        -2.024308         0.466657
 C         2.966109        -1.815050        -1.043094
 C         3.667559        -0.458864        -1.421195
 C         2.195784        -0.532138        -1.245800
 O         1.432035        -0.245104        -2.491194
 H        -0.065646        -1.413452         0.157075
 H        -0.385238         0.199731         0.834735
 H        -0.312889        -0.122169        -0.870076
 H         2.586348         1.692469         0.638964
 H         2.132625        -1.015385         2.161077
 H         3.201627        -2.883689         0.938679
 H         3.069158        -2.497429        -1.834951
 H         4.168455         0.199580        -0.636704
 H         4.042738        -0.321756        -2.461842
 H         1.975801         0.476677        -2.745682
