19
Iteration:  2123
 C         0.050530        -0.137756         0.081087
 C         1.593849        -0.054738        -0.030834
 O         1.948615         1.321287        -0.005736
 C         2.113764        -1.033659         1.060039
 C         2.885795        -1.961238         0.532463
 C         3.054532        -1.773807        -0.908600
 C         3.749162        -0.398328        -1.358988
 C         2.235179        -0.560933        -1.281875
 O         1.373491        -0.386756        -2.407013
 H        -0.327352         0.562415        -0.695860
 H        -0.434190        -1.091476        -0.084390
 H        -0.232786         0.201720         1.037241
 H         2.957828         1.286190        -0.255020
 H         1.992987        -0.798319         2.200264
 H         3.059907        -2.847057         1.233664
 H         3.244143        -2.446895        -1.700086
 H         4.423900         0.093063        -0.560321
 H         4.156654        -0.530102        -2.333147
 H         0.922925         0.471358        -2.149512
