19
Iteration:  2672charge 0 multiplicity 1
 C         0.086241        -0.132451         0.042739
 C         1.570527         0.108174         0.020894
 O         1.830451         1.520307         0.473263
 C         2.127247        -0.920209         1.043651
 C         2.949056        -1.867812         0.464665
 C         2.970024        -1.866958        -0.997287
 C         3.718690        -0.575877        -1.597159
 C         2.231208        -0.551609        -1.319067
 O         1.513659        -0.625371        -2.495850
 H        -0.203643         0.071860        -1.030321
 H        -0.152326        -1.276390         0.154968
 H        -0.329863         0.620882         0.698893
 H         2.644110         1.487592         0.901774
 H         2.154562        -0.808011         2.137226
 H         3.119139        -2.866241         0.947507
 H         2.755041        -2.679006        -1.726469
 H         4.427831        -0.166351        -0.787673
 H         3.930817        -0.420766        -2.604860
 H         1.424404         0.210767        -3.009629
