19
Iteration:  3950
 C         0.010749        -0.218516         0.058138
 C         1.585530        -0.065173         0.021638
 O         1.986492         1.323470         0.152148
 C         2.215737        -0.929927         1.097599
 C         2.951912        -1.890128         0.501181
 C         3.022844        -1.718032        -0.975410
 C         3.717821        -0.484583        -1.383838
 C         2.178928        -0.545805        -1.331444
 O         1.376484        -0.436605        -2.460625
 H        -0.340018         0.819097        -0.095396
 H        -0.313140        -0.857793        -0.800978
 H        -0.407618        -0.630290         0.945705
 H         1.330968         1.722497         0.708847
 H         2.082153        -0.906283         2.170193
 H         3.481016        -2.609893         1.062159
 H         3.119983        -2.582239        -1.666523
 H         4.180417         0.125617        -0.595024
 H         4.177734        -0.385039        -2.355821
 H         1.795337         0.148041        -3.079210
