19
Iteration:  1914charge 0 multiplicity 1
 C         0.112351        -0.120770        -0.098423
 C         1.564678         0.070230        -0.024855
 O         1.940137         1.435290         0.327902
 C         2.214227        -0.990904         1.114650
 C         2.864259        -1.959008         0.526454
 C         2.933338        -1.749922        -0.953378
 C         3.685975        -0.517004        -1.473237
 C         2.161616        -0.537878        -1.229952
 O         1.486664        -0.527491        -2.486216
 H        -0.312630         0.150999        -1.036725
 H        -0.092146        -1.223218        -0.098769
 H        -0.483321         0.222377         0.731278
 H         2.851020         1.493498         0.088387
 H         2.227974        -0.742948         2.208599
 H         3.473920        -2.746144         0.970244
 H         2.821638        -2.662527        -1.562371
 H         4.628476        -0.283649        -0.906256
 H         3.833581        -0.500562        -2.515140
 H         0.897764         0.244640        -2.460226
