19
Iteration:   468
 C         0.018884        -0.087679         0.043626
 C         1.561255        -0.098184        -0.022591
 O         1.812658         1.308280         0.086202
 C         2.055942        -0.920530         1.031926
 C         2.915396        -1.902433         0.617709
 C         3.090791        -1.872492        -0.854535
 C         3.667267        -0.565024        -1.314152
 C         2.212908        -0.586495        -1.357877
 O         1.635195        -0.271724        -2.577871
 H        -0.496354        -0.680050         0.905235
 H        -0.386486         0.983478         0.173519
 H        -0.382660        -0.483255        -0.886779
 H         2.704372         1.244583         0.551751
 H         2.211909        -0.419408         1.953104
 H         3.615151        -2.371333         1.286642
 H         3.306199        -2.783831        -1.406874
 H         4.365929        -0.026045        -0.617983
 H         4.036090        -0.613426        -2.288438
 H         0.704808        -0.230188        -2.330142
