19
Iteration:   106
 C         0.022829        -0.110144        -0.029938
 C         1.596698        -0.013991        -0.070758
 O         1.966877         1.342029         0.127498
 C         2.051272        -0.948657         1.028228
 C         2.864102        -1.939148         0.570626
 C         3.036367        -1.833416        -0.927312
 C         3.729992        -0.454599        -1.317560
 C         2.263535        -0.613726        -1.326483
 O         1.449496        -0.444008        -2.448526
 H        -0.308371        -0.193323         0.990030
 H        -0.402868         0.749897        -0.558564
 H        -0.189622        -1.139430        -0.547197
 H         2.180880         1.557523         1.049200
 H         2.140445        -0.574133         2.064229
 H         3.411292        -2.570755         1.236871
 H         3.148005        -2.615536        -1.649685
 H         4.256142         0.210020        -0.598657
 H         4.147305        -0.536655        -2.342609
 H         1.290785         0.512063        -2.422831
