19
Iteration:  4722charge 0 multiplicity 1
 C         0.061852        -0.326149         0.129686
 C         1.572312         0.003198         0.062971
 O         1.768458         1.404412         0.228699
 C         2.335107        -0.927651         1.034623
 C         2.847884        -2.021288         0.453673
 C         2.817787        -1.832534        -0.993891
 C         3.700143        -0.516233        -1.471832
 C         2.223194        -0.469636        -1.256330
 O         1.636901        -0.203496        -2.517883
 H        -0.066920        -1.350424         0.380258
 H        -0.431191         0.293808         1.000407
 H        -0.512416        -0.205309        -0.717732
 H         2.812580         1.588834         0.139292
 H         2.478747        -0.524639         2.082816
 H         3.548177        -2.717385         0.924025
 H         2.729490        -2.637484        -1.664663
 H         4.479643        -0.126196        -0.814311
 H         4.023614        -0.876949        -2.453926
 H         0.864726        -0.748049        -2.543313
