19
Iteration:  2180charge 0 multiplicity 1
 C         0.046866        -0.204994         0.035203
 C         1.597473         0.044537        -0.025573
 O         1.751971         1.367019         0.459630
 C         2.339629        -0.748029         1.072952
 C         2.864428        -1.823556         0.530259
 C         2.834433        -1.824644        -0.980731
 C         3.739140        -0.739166        -1.464308
 C         2.306800        -0.486530        -1.391206
 O         1.458604        -0.472604        -2.583458
 H        -0.390337         0.367417        -0.790790
 H        -0.140604        -1.221771        -0.117988
 H        -0.341291         0.267475         0.967332
 H         2.679095         1.369375         0.717228
 H         2.171836        -0.647855         2.128552
 H         3.636115        -2.350973         1.020935
 H         2.564375        -2.720295        -1.617789
 H         4.435449        -0.262256        -0.744507
 H         4.294594        -0.781346        -2.465470
 H         2.077550        -0.127445        -3.217054
