19
Iteration:  2701
 C         0.112377        -0.165040         0.013909
 C         1.605349        -0.025183        -0.033147
 O         1.820300         1.363207         0.210734
 C         2.259609        -0.917940         1.070711
 C         2.833752        -1.981141         0.526739
 C         2.926929        -1.753253        -0.937165
 C         3.837648        -0.516970        -1.407762
 C         2.262953        -0.500085        -1.355203
 O         1.340963        -0.466500        -2.405796
 H        -0.161194         0.490110        -0.749715
 H        -0.329690        -1.196929        -0.149530
 H        -0.279844         0.209916         0.983821
 H         2.790257         1.512582         0.083671
 H         2.227964        -0.632625         2.094934
 H         3.309010        -2.879480         0.939986
 H         2.891291        -2.521694        -1.785578
 H         4.467829        -0.045920        -0.592509
 H         4.427564        -0.584184        -2.339115
 H         1.117361         0.424458        -2.684095
