19
Iteration:   415
 C         0.056270        -0.162805        -0.141856
 C         1.646997         0.043849         0.023011
 O         1.773363         1.492930         0.275721
 C         2.132854        -0.980865         1.091886
 C         2.733606        -2.059837         0.599407
 C         2.980600        -1.797056        -0.904189
 C         3.774957        -0.456117        -1.465234
 C         2.343531        -0.508100        -1.291015
 O         1.510394        -0.535594        -2.438045
 H        -0.204366        -0.640200         0.844512
 H        -0.445055         0.826708        -0.151102
 H        -0.167615        -0.938458        -0.821711
 H         2.648318         1.612546        -0.243372
 H         1.970195        -0.741919         2.123724
 H         3.392249        -2.726620         1.087787
 H         2.872596        -2.450135        -1.753762
 H         4.236049         0.208758        -0.727095
 H         4.133043        -0.490458        -2.426339
 H         2.104129        -0.115702        -3.054734
