19
Iteration:   195
 C         0.125081        -0.188467        -0.150494
 C         1.607936        -0.014140         0.013018
 O         1.957637         1.393551         0.132939
 C         2.112410        -0.939252         1.173582
 C         2.823488        -1.965224         0.587719
 C         2.963020        -1.762813        -0.888753
 C         3.695635        -0.510348        -1.416397
 C         2.250177        -0.549199        -1.322105
 O         1.462743        -0.429748        -2.432376
 H        -0.414734        -0.575446         0.737381
 H        -0.287092         0.799616        -0.420246
 H        -0.297553        -0.723110        -1.056022
 H         1.610756         1.752762         1.000440
 H         1.880581        -0.933405         2.233177
 H         3.490019        -2.643683         1.151573
 H         3.139459        -2.684291        -1.489770
 H         4.153189         0.109654        -0.643266
 H         4.208413        -0.609989        -2.388428
 H         1.972991         0.051209        -3.078115
