19
Iteration:  3415charge 0 multiplicity 1
 C         0.037930        -0.076760        -0.183841
 C         1.565554        -0.065783        -0.001522
 O         2.074342         1.277625         0.402491
 C         2.107401        -0.984209         1.076054
 C         3.018238        -1.824360         0.485403
 C         3.062481        -1.646645        -0.944886
 C         3.699583        -0.399611        -1.507698
 C         2.138213        -0.508108        -1.284408
 O         1.368765        -0.695434        -2.415162
 H        -0.437396         0.515668        -1.078984
 H        -0.187322        -1.067121        -0.421868
 H        -0.571931         0.310082         0.706140
 H         1.906277         1.430479         1.407624
 H         1.836058        -0.894911         2.128647
 H         3.634712        -2.584977         0.934652
 H         2.975366        -2.564602        -1.650319
 H         4.247145         0.288747        -0.858662
 H         3.865891        -0.095177        -2.617132
 H         1.211004         0.210556        -2.795701
