19
Iteration:  2495charge 0 multiplicity 1
 C         0.112803        -0.258135        -0.193282
 C         1.647866         0.029461        -0.024999
 O         1.819439         1.441387         0.215639
 C         2.216025        -0.928088         1.116942
 C         2.977085        -1.880308         0.580345
 C         2.959723        -1.886941        -0.921889
 C         3.662908        -0.684126        -1.549913
 C         2.230241        -0.554987        -1.272132
 O         1.362104        -0.263180        -2.294633
 H        -0.368077         0.047896        -1.125993
 H        -0.144729        -1.308625         0.184272
 H        -0.443968         0.392033         0.611130
 H         2.742793         1.645401         0.286056
 H         2.198034        -0.552485         2.196494
 H         3.363797        -2.713595         1.223768
 H         2.926603        -2.815550        -1.402870
 H         4.395495        -0.376627        -0.783002
 H         4.044029        -0.760428        -2.603203
 H         1.805591         0.366541        -2.923068
