19
Iteration:  2891
 C        -0.011966        -0.028163         0.163132
 C         1.529955        -0.090850        -0.005815
 O         1.923050         1.332913         0.181123
 C         2.130977        -1.043530         1.034927
 C         2.931713        -1.933742         0.467977
 C         3.026063        -1.699154        -0.956866
 C         3.728938        -0.309998        -1.310444
 C         2.143440        -0.565021        -1.263364
 O         1.499209        -0.641953        -2.597849
 H        -0.490722         0.705896        -0.589952
 H        -0.449191        -0.975676         0.171555
 H        -0.098379         0.253588         1.227376
 H         2.817740         1.406807        -0.339240
 H         2.237896        -0.760499         2.066604
 H         3.650272        -2.631120         0.919971
 H         3.175571        -2.522433        -1.681360
 H         4.171619         0.185402        -0.399258
 H         4.235469        -0.187484        -2.252908
 H         1.351203         0.313661        -2.798853
