19
Iteration:  4151charge 0 multiplicity 1
 C         0.032213        -0.469351         0.160363
 C         1.591041         0.037297         0.026546
 O         1.680393         1.486502         0.236613
 C         2.374179        -0.860249         1.023635
 C         2.814678        -1.957924         0.490984
 C         2.772146        -1.806807        -1.070899
 C         3.832753        -0.681087        -1.383780
 C         2.256360        -0.465774        -1.269998
 O         1.598957        -0.244932        -2.526135
 H         0.075892        -1.613390        -0.114445
 H        -0.325340        -0.646556         1.151336
 H        -0.939061         0.010635        -0.316855
 H         2.653159         1.819990         0.112013
 H         2.521243        -0.417557         2.065179
 H         3.383791        -2.797355         0.923010
 H         2.653122        -2.703660        -1.743611
 H         4.550451        -0.284242        -0.587936
 H         4.141817        -0.625144        -2.481044
 H         1.840147         0.661891        -2.883342
