19
Iteration:  1994
 C         0.024847        -0.090453         0.029339
 C         1.567423        -0.002050         0.018162
 O         1.972741         1.314386         0.101305
 C         2.289650        -0.934245         1.127742
 C         2.867197        -1.977533         0.515530
 C         3.065696        -1.804541        -1.011954
 C         3.643003        -0.456130        -1.363044
 C         2.115062        -0.633386        -1.232489
 O         1.426893        -0.318695        -2.455410
 H        -0.505383         0.710747        -0.619083
 H        -0.310739        -1.091230        -0.328731
 H        -0.400580         0.208630         0.997096
 H         2.849787         1.264705         0.415398
 H         1.882032        -0.933919         2.135682
 H         3.366589        -2.727958         1.149797
 H         3.061003        -2.719371        -1.578861
 H         4.270340         0.194913        -0.750104
 H         3.833193        -0.271279        -2.481921
 H         1.797136        -0.968749        -3.058092
