19
Iteration:   950
 C        -0.052481        -0.003049        -0.142435
 C         1.494299        -0.029041        -0.013123
 O         1.928087         1.291141         0.269661
 C         2.101855        -0.969171         1.030226
 C         2.928327        -1.893368         0.571386
 C         3.041706        -1.745774        -0.872032
 C         3.730223        -0.547774        -1.424996
 C         2.202714        -0.596137        -1.227299
 O         1.547624        -0.466649        -2.470931
 H        -0.534901         0.962072        -0.092664
 H        -0.433592        -0.524401        -0.969922
 H        -0.525897        -0.402626         0.747547
 H         2.862439         1.339870        -0.161766
 H         1.857281        -0.826560         2.097503
 H         3.491561        -2.588174         1.234759
 H         3.020022        -2.716042        -1.372170
 H         4.366179         0.091735        -0.760978
 H         3.903927        -0.524653        -2.464050
 H         2.132995         0.214049        -2.877939
