19
Iteration:  1136
 C        -0.014046        -0.118483        -0.105467
 C         1.588391         0.019816        -0.053665
 O         1.803738         1.384584         0.469212
 C         2.135087        -0.847736         1.056161
 C         2.882362        -1.908434         0.622460
 C         2.986226        -1.753582        -0.956747
 C         3.836726        -0.574091        -1.499272
 C         2.269956        -0.554869        -1.337111
 O         1.442508        -0.532069        -2.538749
 H        -0.400341         0.841890        -0.464834
 H        -0.187960        -0.936020        -0.835562
 H        -0.372428        -0.252744         0.878718
 H         2.629873         1.256176         1.078250
 H         1.805883        -0.540522         2.040676
 H         3.357956        -2.739223         1.110623
 H         3.114922        -2.537871        -1.700026
 H         4.519564        -0.177130        -0.752783
 H         4.439198        -0.692088        -2.496827
 H         2.039005        -0.201292        -3.240958
