19
Iteration:  3072
 C         0.082804        -0.135437        -0.013810
 C         1.609105        -0.008723         0.023672
 O         1.918139         1.319337         0.322655
 C         2.228855        -0.890501         1.047726
 C         2.900130        -1.930164         0.529227
 C         3.065013        -1.729061        -0.990973
 C         3.747898        -0.467845        -1.391894
 C         2.205531        -0.552031        -1.345430
 O         1.335365        -0.576084        -2.477051
 H        -0.390433         0.704101        -0.592210
 H        -0.134359        -1.082459        -0.620459
 H        -0.284050        -0.015932         0.995016
 H         1.398901         1.827784        -0.261249
 H         2.123409        -0.623075         2.092325
 H         3.346861        -2.759061         1.096031
 H         3.180084        -2.557322        -1.709603
 H         4.252513         0.104928        -0.541771
 H         4.233201        -0.498382        -2.332452
 H         1.261671         0.373518        -2.736155
