19
Iteration:  3295
 C         0.134544        -0.382578         0.059006
 C         1.602713         0.043224        -0.008650
 O         1.852744         1.367966         0.113466
 C         2.230276        -0.808348         1.094152
 C         2.855957        -1.946765         0.548888
 C         2.936500        -1.811233        -0.919498
 C         3.797285        -0.581320        -1.411413
 C         2.236916        -0.482353        -1.354467
 O         1.410237        -0.352437        -2.499845
 H        -0.488285         0.336703        -0.570028
 H         0.070203        -1.413825        -0.295083
 H        -0.036025        -0.292898         1.167121
 H         1.638714         1.796490         0.896921
 H         2.071416        -0.575324         2.162957
 H         3.332755        -2.875577         1.089249
 H         2.891325        -2.679048        -1.629961
 H         4.343208        -0.025153        -0.564953
 H         4.214159        -0.679127        -2.412003
 H         1.337866         0.605812        -2.553857
