19
Iteration:  3618charge 0 multiplicity 1
 C         0.085043        -0.313698         0.059870
 C         1.607426        -0.024045         0.076577
 O         1.796895         1.443627        -0.030571
 C         2.275520        -0.940420         1.103169
 C         2.820924        -2.031083         0.531739
 C         2.961631        -1.855944        -0.946725
 C         3.722477        -0.490279        -1.316372
 C         2.242698        -0.496111        -1.306551
 O         1.481026        -0.327482        -2.472435
 H        -0.303718         0.507691        -0.609280
 H        -0.152062        -1.308568        -0.397036
 H        -0.380360        -0.425181         1.043242
 H         2.685679         1.775680         0.377126
 H         2.210737        -0.753406         2.213852
 H         3.279166        -2.749150         1.126665
 H         3.275871        -2.684071        -1.620504
 H         4.237799         0.198236        -0.564371
 H         4.051715        -0.414513        -2.325006
 H         1.168449         0.625421        -2.411072
