19
Iteration:  1757charge 0 multiplicity 1
 C         0.006788        -0.091313        -0.135487
 C         1.555081        -0.011294         0.026722
 O         2.009936         1.351792         0.324782
 C         2.090287        -0.969177         1.047774
 C         3.051932        -1.883153         0.562388
 C         3.048443        -1.856331        -0.915085
 C         3.654539        -0.588734        -1.535065
 C         2.241890        -0.530143        -1.232552
 O         1.416961        -0.388284        -2.399329
 H        -0.156168         0.203226        -1.201535
 H        -0.347031        -1.106598         0.103985
 H        -0.509761         0.642238         0.486573
 H         1.133863         1.781924         0.500875
 H         2.055025        -0.752229         2.072013
 H         3.260272        -2.844650         1.073150
 H         2.947964        -2.701416        -1.593485
 H         4.440175        -0.006354        -0.988980
 H         3.813311        -0.688591        -2.724533
 H         1.866364         0.028801        -3.131532
