19
Iteration:   583charge 0 multiplicity 1
 C        -0.137197         0.013512        -0.092135
 C         1.457657        -0.109239         0.030870
 O         2.044528         1.199394         0.204009
 C         2.002281        -1.028415         1.067939
 C         3.011672        -1.786921         0.627666
 C         3.063080        -1.796398        -0.945320
 C         3.751756        -0.475470        -1.422807
 C         2.303925        -0.563812        -1.271112
 O         1.617356        -0.420942        -2.515124
 H        -0.269661         0.866271         0.565899
 H        -0.633974         0.154026        -1.035752
 H        -0.506182        -0.859131         0.496010
 H         1.424415         1.927750         0.142150
 H         1.669985        -1.014499         2.106007
 H         3.377365        -2.545255         1.277492
 H         3.088060        -2.569733        -1.664651
 H         4.369092         0.089941        -0.583502
 H         3.899482        -0.171220        -2.436551
 H         0.688407        -0.569770        -2.617515
