19
Iteration:   600charge 0 multiplicity 1
 C        -0.124635         0.040293         0.031113
 C         1.438788        -0.088298        -0.043480
 O         2.047251         1.236343         0.191059
 C         2.044994        -1.004214         1.017519
 C         2.934773        -1.860688         0.530014
 C         3.165148        -1.777445        -0.895742
 C         3.772291        -0.443384        -1.281965
 C         2.167414        -0.646810        -1.350818
 O         1.635201        -0.440118        -2.573285
 H        -0.640582         0.816148         0.676951
 H        -0.581911         0.387666        -0.930746
 H        -0.782022        -0.800229         0.415528
 H         1.393391         1.738790         0.617187
 H         1.809167        -0.694331         2.083761
 H         3.770287        -2.381137         1.092607
 H         3.293199        -2.743556        -1.486538
 H         4.253680         0.150758        -0.572749
 H         4.219418        -0.539325        -2.292452
 H         0.694131        -0.505746        -2.362699
