19
Iteration:  1350charge 0 multiplicity 1
 C         0.078447        -0.181266         0.036255
 C         1.530207         0.019095        -0.005667
 O         1.982856         1.494722         0.171708
 C         2.080556        -0.989224         0.997350
 C         2.823804        -1.972400         0.483852
 C         3.041486        -1.794504        -0.929466
 C         3.774354        -0.532842        -1.365130
 C         2.237340        -0.499387        -1.272545
 O         1.526962        -0.529068        -2.482615
 H        -0.517780         0.442687        -0.640902
 H        -0.216788        -1.177736        -0.246397
 H        -0.272439         0.115649         1.057035
 H         1.457143         1.894210         0.955676
 H         1.862602        -0.816229         2.101615
 H         3.146819        -2.976566         0.894996
 H         2.846567        -2.594233        -1.641372
 H         4.144650         0.015830        -0.530160
 H         4.429252        -0.442414        -2.194204
 H         1.294015         0.303985        -2.908785
