19
Iteration:  4139charge 0 multiplicity 1
 C         0.042720        -0.455270         0.170414
 C         1.599804         0.037718         0.037154
 O         1.677561         1.455321         0.236863
 C         2.337959        -0.812035         1.044889
 C         2.869079        -1.941989         0.408975
 C         2.840817        -1.823137        -1.033429
 C         3.743693        -0.607669        -1.430713
 C         2.181376        -0.515822        -1.273061
 O         1.655430        -0.312771        -2.508729
 H        -0.198200        -1.223485        -0.617234
 H        -0.069643        -0.641416         1.236748
 H        -0.441811         0.532385        -0.168591
 H         2.581791         1.647913         0.362741
 H         2.246849        -0.574142         2.161565
 H         3.198200        -2.817204         0.936313
 H         2.582939        -2.642129        -1.709418
 H         4.431530        -0.447579        -0.587600
 H         4.149628        -0.486588        -2.452185
 H         1.912677         0.607526        -2.691243
