19
Iteration:   372charge 0 multiplicity 1
 C        -0.012794        -0.129914        -0.091536
 C         1.534416        -0.052675        -0.059889
 O         1.842442         1.340150         0.310094
 C         2.099364        -0.918417         1.071503
 C         2.880225        -1.858800         0.595105
 C         2.997853        -1.819283        -0.955788
 C         3.828510        -0.526770        -1.394523
 C         2.259574        -0.571862        -1.342888
 O         1.494305        -0.404033        -2.473160
 H        -0.559103         0.451627         0.680873
 H        -0.486416         0.344183        -0.972397
 H        -0.351287        -1.131879        -0.034728
 H         2.712795         1.448709         0.849528
 H         2.034528        -0.593046         2.116113
 H         3.611468        -2.454631         1.139081
 H         3.069724        -2.680224        -1.615829
 H         4.384814        -0.008344        -0.587205
 H         4.267132        -0.452243        -2.333831
 H         1.987910        -0.557692        -3.279185
