19
Iteration:    12
 C        -0.032683        -0.106165         0.013971
 C         1.535880        -0.036781        -0.022385
 O         1.953830         1.370677         0.258891
 C         2.106286        -0.996111         1.065147
 C         2.898841        -1.930883         0.513998
 C         3.115567        -1.763518        -0.964385
 C         3.796931        -0.504722        -1.344175
 C         2.226092        -0.478574        -1.360487
 O         1.416512        -0.444345        -2.572633
 H        -0.247238         0.439167         0.941921
 H        -0.488320         0.419248        -0.820019
 H        -0.434280        -1.133200         0.079064
 H         2.231013         1.498583         1.261133
 H         2.072098        -0.881354         2.130664
 H         3.698727        -2.289809         1.131367
 H         3.009646        -2.525015        -1.715985
 H         4.344097         0.170838        -0.663492
 H         4.198012        -0.555099        -2.329443
 H         1.042356        -1.348064        -2.610740
