19
Iteration:  3585
 C         0.074456        -0.321468         0.117923
 C         1.566182        -0.025004        -0.009952
 O         1.758095         1.372701         0.179427
 C         2.239316        -0.809153         1.001497
 C         2.925708        -1.865386         0.510502
 C         2.843521        -1.880149        -0.954033
 C         3.741803        -0.655493        -1.411848
 C         2.284670        -0.504035        -1.333058
 O         1.563812        -0.302063        -2.490494
 H        -0.599613         0.089794        -0.661209
 H        -0.124890        -1.454127         0.108864
 H        -0.324627         0.185989         1.012579
 H         1.735705         1.638134         1.173096
 H         2.193863        -0.567151         2.079211
 H         3.540606        -2.474503         1.179176
 H         2.933712        -2.800472        -1.617801
 H         4.288347        -0.047267        -0.691036
 H         4.181182        -0.518254        -2.413551
 H         2.028180         0.359247        -3.037881
