19
Iteration:  2789charge 0 multiplicity 1
 C         0.027673        -0.171113         0.014869
 C         1.642949         0.092695         0.037851
 O         1.753561         1.535844         0.373337
 C         2.299592        -0.917090         1.037266
 C         2.875459        -2.000238         0.541918
 C         3.004648        -1.864909        -0.993166
 C         3.698590        -0.603457        -1.462987
 C         2.233967        -0.496232        -1.356865
 O         1.494680        -0.527804        -2.519199
 H        -0.606682         0.603794        -0.200692
 H        -0.300557        -1.016759        -0.681861
 H        -0.235359        -0.361033         1.034328
 H         2.657777         1.713533         0.246695
 H         2.319488        -0.827898         2.133532
 H         3.346288        -2.911004         0.999191
 H         2.849834        -2.717349        -1.711057
 H         4.385848        -0.114251        -0.685893
 H         3.979323        -0.512896        -2.498067
 H         1.348159         0.353184        -2.909930
