19
Iteration:  2522charge 0 multiplicity 1
 C         0.033738        -0.157996         0.022153
 C         1.572115         0.005953         0.075755
 O         1.780239         1.369368         0.263502
 C         2.264636        -0.872440         1.140472
 C         2.983809        -1.857582         0.520973
 C         2.876016        -1.801838        -0.944529
 C         3.704670        -0.687081        -1.523222
 C         2.197135        -0.528664        -1.316404
 O         1.509388        -0.403235        -2.521631
 H        -0.157465         0.634700        -0.739233
 H        -0.320685        -1.128026        -0.229653
 H        -0.529936         0.139940         0.858621
 H         2.643618         1.496214         0.663164
 H         2.365468        -0.511776         2.153090
 H         3.414656        -2.607226         1.188448
 H         2.884812        -2.782861        -1.535783
 H         4.550611        -0.221429        -0.990325
 H         3.955182        -0.953618        -2.564972
 H         2.077386         0.085361        -3.157676
