19
Iteration:   316
 C         0.025824        -0.113821        -0.068003
 C         1.587911        -0.078622        -0.073747
 O         1.867543         1.337684         0.221102
 C         2.081027        -0.947909         0.992134
 C         2.872630        -1.989311         0.577569
 C         3.089911        -1.779815        -0.846994
 C         3.759452        -0.450237        -1.315593
 C         2.240309        -0.484297        -1.355433
 O         1.452123        -0.464619        -2.475682
 H        -0.300970         0.882042         0.377685
 H        -0.489436        -0.250472        -1.053230
 H        -0.387742        -0.780774         0.650844
 H         2.822042         1.407387         0.466719
 H         1.755652        -0.900960         2.068677
 H         3.243869        -2.854451         1.161863
 H         3.256609        -2.589556        -1.554300
 H         4.271554         0.242114        -0.694396
 H         4.231023        -0.624380        -2.265448
 H         1.706971         0.434673        -2.791348
