19
Iteration:  2699charge 0 multiplicity 1
 C         0.099385        -0.172767         0.028907
 C         1.598853        -0.007493        -0.048767
 O         1.818597         1.371675         0.235194
 C         2.270039        -0.905332         1.066647
 C         2.824387        -1.998548         0.516674
 C         2.934806        -1.753286        -0.940533
 C         3.846533        -0.520146        -1.407508
 C         2.273509        -0.492806        -1.359063
 O         1.338938        -0.484042        -2.406242
 H        -0.152740         0.447438        -0.825718
 H        -0.251883        -1.131965        -0.160689
 H        -0.294676         0.295210         0.962637
 H         2.733092         1.481144         0.159441
 H         2.143104        -0.628222         2.109827
 H         3.363929        -2.836078         0.909979
 H         2.895012        -2.474222        -1.754978
 H         4.435471        -0.091186        -0.643801
 H         4.422740        -0.679589        -2.378829
 H         1.119695         0.427712        -2.698345
