19
Iteration:  3414
 C         0.044935        -0.079331        -0.186867
 C         1.566156        -0.060186         0.015449
 O         2.078357         1.271002         0.395647
 C         2.110815        -0.985636         1.079783
 C         3.009826        -1.818638         0.487794
 C         3.059689        -1.642718        -0.947170
 C         3.701046        -0.395143        -1.511476
 C         2.142317        -0.504529        -1.287604
 O         1.366194        -0.694478        -2.414242
 H        -0.456270         0.490188        -1.144586
 H        -0.175434        -1.073608        -0.398708
 H        -0.598969         0.282667         0.693568
 H         1.891119         1.427984         1.403500
 H         1.832307        -0.909866         2.102873
 H         3.624953        -2.608513         0.943467
 H         2.980466        -2.573921        -1.645425
 H         4.233597         0.259405        -0.846487
 H         3.844368        -0.107659        -2.622468
 H         1.216585         0.222100        -2.766071
