19
Iteration:  3814
 C        -0.004161        -0.084174         0.070777
 C         1.546717        -0.006149        -0.046652
 O         1.858302         1.343430         0.294112
 C         2.183581        -0.930615         1.011317
 C         3.014949        -1.923616         0.551278
 C         3.091561        -1.845582        -0.899390
 C         3.738048        -0.568070        -1.477307
 C         2.205950        -0.535286        -1.346523
 O         1.455024        -0.440091        -2.493489
 H        -0.557754         0.754950        -0.265594
 H        -0.393954        -0.895341        -0.542091
 H        -0.354554        -0.269052         1.121224
 H         1.013242         1.819850         0.594739
 H         2.213539        -0.504837         1.959474
 H         3.590781        -2.669556         1.129240
 H         3.056242        -2.717780        -1.555550
 H         4.235716         0.008103        -0.721090
 H         4.123470        -0.679547        -2.559026
 H         1.858534         0.227894        -3.117215
