19
Iteration:  3656charge 0 multiplicity 1
 C        -0.013857        -0.164251         0.039788
 C         1.518008        -0.014853         0.025022
 O         1.888896         1.381379         0.272145
 C         2.147185        -0.967509         1.028303
 C         2.904372        -1.878755         0.504931
 C         3.085562        -1.782362        -0.996077
 C         3.822603        -0.512049        -1.365171
 C         2.263014        -0.497615        -1.298177
 O         1.429892        -0.528578        -2.464504
 H        -0.477380         0.770091        -0.560075
 H        -0.320531        -1.075621        -0.584982
 H        -0.498450        -0.080446         1.073484
 H         2.414065         1.624964        -0.582613
 H         1.896573        -0.913787         2.053749
 H         3.482313        -2.695986         1.087303
 H         3.171385        -2.705952        -1.609452
 H         4.336039         0.159815        -0.703421
 H         4.322994        -0.404799        -2.420460
 H         0.964484         0.291807        -2.715939
