19
Iteration:  2856charge 0 multiplicity 1
 C        -0.080672        -0.027525         0.045146
 C         1.500054        -0.080874         0.053098
 O         1.911148         1.336383         0.266442
 C         2.148509        -1.007177         1.074805
 C         3.034368        -1.808246         0.465121
 C         3.182828        -1.775620        -0.963286
 C         3.697858        -0.508901        -1.449463
 C         2.120014        -0.697233        -1.306689
 O         1.433500        -0.451940        -2.537022
 H        -0.562408         0.432363        -0.829750
 H        -0.662476        -0.959156         0.189571
 H        -0.329636         0.682870         0.754785
 H         2.870128         1.472338         0.604539
 H         2.116220        -0.991773         2.204046
 H         3.465202        -2.568328         1.092451
 H         3.417080        -2.683377        -1.384750
 H         4.260250         0.135256        -0.822420
 H         3.971635        -0.448042        -2.590239
 H         1.811726         0.446474        -2.702070
