19
Iteration:   788charge 0 multiplicity 1
 C         0.099152        -0.140359         0.026313
 C         1.527144        -0.015037         0.001641
 O         1.797168         1.483994         0.126359
 C         2.145742        -0.905017         1.074322
 C         2.671179        -1.937140         0.493424
 C         3.054733        -1.833046        -0.951771
 C         3.799310        -0.526482        -1.340029
 C         2.278293        -0.575770        -1.257417
 O         1.623083        -0.422975        -2.467509
 H        -0.351486         0.692489         0.604811
 H        -0.098649         0.105391        -1.049039
 H        -0.255236        -1.102564         0.522458
 H         2.766819         1.446427         0.011866
 H         1.787829        -0.819934         2.092135
 H         2.995233        -2.864164         1.018950
 H         2.973858        -2.730703        -1.618024
 H         4.347880        -0.188980        -0.517247
 H         4.336961        -0.365064        -2.351314
 H         0.981041        -1.132143        -2.600511
