19
Iteration:  3813charge 0 multiplicity 1
 C         0.003559        -0.082164         0.076609
 C         1.545064        -0.011820        -0.044651
 O         1.862249         1.344666         0.297269
 C         2.172444        -0.916928         1.008845
 C         3.012557        -1.923833         0.545222
 C         3.092341        -1.844681        -0.907776
 C         3.734216        -0.563142        -1.479459
 C         2.212023        -0.538932        -1.340287
 O         1.457438        -0.449402        -2.495180
 H        -0.542105         0.747808        -0.242958
 H        -0.454257        -0.906801        -0.568274
 H        -0.368126        -0.275873         1.101885
 H         1.048169         1.806958         0.594204
 H         2.198569        -0.503410         1.991542
 H         3.604661        -2.641058         1.110199
 H         3.059399        -2.708305        -1.567897
 H         4.206101        -0.031633        -0.701384
 H         4.128442        -0.649323        -2.523855
 H         1.856359         0.221589        -3.113072
