19
Iteration:  4741
 C         0.137866        -0.317143         0.174808
 C         1.637345         0.020763         0.006836
 O         1.632814         1.427993         0.274777
 C         2.354513        -0.876247         1.102902
 C         2.877043        -1.953334         0.436559
 C         2.870160        -1.844094        -1.088307
 C         3.824903        -0.730085        -1.429696
 C         2.256973        -0.420266        -1.333631
 O         1.544189        -0.250111        -2.524466
 H        -0.187231        -1.305303         0.537664
 H        -0.457709         0.486152         0.785919
 H        -0.331522        -0.183056        -0.846579
 H         2.657981         1.655155         0.365392
 H         2.160858        -0.834877         2.169280
 H         3.123224        -2.858431         0.891662
 H         2.686767        -2.586673        -1.831003
 H         4.406575        -0.381822        -0.651584
 H         4.099488        -0.309980        -2.356381
 H         0.620136        -0.260472        -2.292785
