19
Iteration:  2483charge 0 multiplicity 1
 C         0.118187        -0.267290        -0.050414
 C         1.611473        -0.000285         0.043217
 O         1.846114         1.417205         0.185765
 C         2.185354        -0.852254         1.059284
 C         2.914544        -1.893008         0.563305
 C         2.935151        -1.854624        -0.958270
 C         3.817553        -0.711896        -1.416928
 C         2.255868        -0.535204        -1.332644
 O         1.292195        -0.272767        -2.354172
 H        -0.097082        -0.137784        -1.162024
 H        -0.095126        -1.351754         0.067818
 H        -0.520496         0.461954         0.606222
 H         2.786152         1.532188         0.000266
 H         2.163780        -0.665885         2.208550
 H         3.414449        -2.775381         1.113785
 H         2.979057        -2.741274        -1.563450
 H         4.525225         0.011852        -0.923665
 H         4.118895        -0.929179        -2.420085
 H         1.555855         0.477159        -2.899800
