19
Iteration:  2898charge 0 multiplicity 1
 C        -0.005865        -0.052071         0.156729
 C         1.484691        -0.046723         0.034816
 O         1.939867         1.390074         0.214169
 C         2.140889        -0.992530         1.055259
 C         2.909440        -1.934118         0.420689
 C         3.097887        -1.721472        -1.005068
 C         3.700682        -0.361868        -1.266116
 C         2.191271        -0.568225        -1.335698
 O         1.480440        -0.652240        -2.564106
 H        -0.477660         0.662194        -0.462871
 H        -0.345466        -1.143883         0.037014
 H        -0.127418         0.187406         1.192959
 H         2.695569         1.402915        -0.451718
 H         2.018205        -0.789691         2.159816
 H         3.446832        -2.757439         0.879012
 H         3.310774        -2.493699        -1.668248
 H         4.175142         0.109386        -0.444075
 H         4.297986        -0.241809        -2.244054
 H         1.163345         0.186769        -2.912636
