19
Iteration:  2431charge 0 multiplicity 1
 C         0.004822        -0.013023         0.323939
 C         1.561366         0.045376         0.043561
 O         1.812223         1.439447         0.129217
 C         2.285662        -0.945939         1.038732
 C         2.839203        -2.015813         0.461924
 C         2.974821        -1.812286        -1.035636
 C         3.648515        -0.494987        -1.305247
 C         2.092798        -0.615740        -1.333640
 O         1.690101        -0.558949        -2.670070
 H        -0.396710         0.866214        -0.051996
 H        -0.382001        -1.031306         0.071048
 H        -0.036871         0.033086         1.441139
 H         2.718805         1.596154         0.134753
 H         2.080957        -0.971792         2.191144
 H         3.595528        -2.693918         0.968770
 H         2.901591        -2.636590        -1.673732
 H         4.363643        -0.251906        -0.459525
 H         4.186651        -0.192670        -2.203320
 H         1.156134         0.230460        -2.887699
