19
Iteration:  4818
 C         0.006136        -0.174720         0.027468
 C         1.550532        -0.071587         0.040904
 O         1.906455         1.386057         0.236039
 C         2.168083        -0.981449         1.004253
 C         3.022808        -1.949064         0.464813
 C         3.050499        -1.869899        -1.008233
 C         3.686867        -0.476429        -1.338680
 C         2.203981        -0.544634        -1.278542
 O         1.382159        -0.354584        -2.484175
 H        -0.361522        -0.813933        -0.795168
 H        -0.354464        -0.702615         1.059433
 H        -0.605068         0.752941        -0.045579
 H         2.844475         1.354560         0.151007
 H         2.295230        -0.599807         2.087389
 H         3.723152        -2.477080         1.166601
 H         3.020479        -2.616110        -1.774666
 H         4.412575        -0.157911        -0.627188
 H         3.980349        -0.211242        -2.326354
 H         1.267841         0.588811        -2.655109
