19
Iteration:  4548
 C         0.086950        -0.053529        -0.028370
 C         1.561996        -0.073568         0.013097
 O         1.992841         1.301347         0.309829
 C         2.105132        -1.012937         1.075084
 C         2.895293        -2.001603         0.444890
 C         3.158923        -1.734322        -1.024268
 C         3.680170        -0.244371        -1.437356
 C         2.198968        -0.584671        -1.383992
 O         1.283593        -0.467097        -2.389559
 H        -0.273932        -1.010701        -0.373996
 H        -0.367216        -0.005707         1.058878
 H        -0.245486         0.787404        -0.535803
 H         2.533979         1.380376         1.033862
 H         2.125624        -0.910339         2.127393
 H         3.422949        -2.631959         1.136066
 H         3.519191        -2.586275        -1.640955
 H         4.127228         0.385943        -0.675990
 H         4.146195        -0.414682        -2.394436
 H         1.445415        -1.068796        -3.154282
