19
Iteration:  2505charge 0 multiplicity 1
 C         0.076686        -0.191191        -0.156694
 C         1.617319        -0.034719         0.027517
 O         1.790931         1.439259         0.228321
 C         2.281466        -0.852016         1.111572
 C         2.967920        -1.916848         0.591497
 C         2.929105        -1.905892        -0.888012
 C         3.643963        -0.678658        -1.600385
 C         2.234732        -0.560436        -1.216090
 O         1.425423        -0.288183        -2.383104
 H        -0.329585         0.092783        -1.150397
 H        -0.067576        -1.323547        -0.084475
 H        -0.344773         0.371571         0.775953
 H         2.746897         1.545064         0.489082
 H         1.924587        -0.765619         2.206393
 H         3.679971        -2.611267         1.151093
 H         2.658316        -2.703198        -1.511403
 H         4.424128        -0.154445        -0.989272
 H         3.867337        -0.563355        -2.673024
 H         2.068537         0.188825        -2.948053
