19
Iteration:  2007
 C         0.082980        -0.138974        -0.048787
 C         1.593334        -0.076748         0.051753
 O         1.956465         1.375260         0.175249
 C         2.165416        -0.939515         1.071224
 C         2.927442        -1.975374         0.535998
 C         2.966811        -1.787104        -0.915387
 C         3.658521        -0.500456        -1.455403
 C         2.220690        -0.516603        -1.312555
 O         1.358661        -0.340566        -2.391157
 H        -0.029446         0.585566        -0.922010
 H        -0.300098        -1.082413        -0.373434
 H        -0.466222         0.144069         0.928201
 H         2.918321         1.419366         0.486218
 H         2.159195        -0.751145         2.205775
 H         3.464028        -2.786400         1.058182
 H         3.162335        -2.557922        -1.626910
 H         4.264620         0.086740        -0.693070
 H         4.097444        -0.539494        -2.431575
 H         1.410391        -1.036788        -3.079657
