19
Iteration:  2347
 C         0.081337        -0.027272        -0.226328
 C         1.597284         0.000447         0.069887
 O         1.938270         1.282756         0.464663
 C         2.149535        -0.958484         1.105634
 C         2.990731        -1.855656         0.507109
 C         3.017927        -1.785748        -0.952068
 C         3.721732        -0.498347        -1.563978
 C         2.210170        -0.508841        -1.308790
 O         1.303734        -0.605978        -2.428329
 H        -0.198740         0.509588        -1.104009
 H        -0.380952        -1.065145        -0.356714
 H        -0.356252         0.527051         0.582155
 H         2.926917         1.243866         0.756551
 H         2.264869        -0.423075         2.101709
 H         3.538216        -2.661795         1.024083
 H         2.855192        -2.591436        -1.598980
 H         4.303355         0.128573        -0.872018
 H         3.850633        -0.360128        -2.624666
 H         1.208635         0.270150        -2.840586
