19
Iteration:  4059charge 0 multiplicity 1
 C        -0.033545         0.084267        -0.077125
 C         1.513272        -0.112690         0.068983
 O         2.076189         1.268759         0.420017
 C         2.065122        -1.086967         1.099029
 C         3.003523        -1.948024         0.505576
 C         3.099211        -1.619269        -0.972585
 C         3.622474        -0.211409        -1.453208
 C         2.169447        -0.517621        -1.326188
 O         1.428591        -0.758667        -2.521589
 H        -0.324983         0.122395        -1.103743
 H        -0.712314        -0.815787         0.251162
 H        -0.286497         0.921755         0.472488
 H         2.891127         1.327269        -0.037592
 H         1.719928        -1.179586         2.155022
 H         3.780635        -2.662287         1.042315
 H         3.230977        -2.527361        -1.648126
 H         4.073941         0.581347        -0.901178
 H         4.157294        -0.205107        -2.425060
 H         1.233542         0.013278        -3.087077
