19
Iteration:  1285charge 0 multiplicity 1
 C        -0.046070        -0.099088        -0.094102
 C         1.456429        -0.032218         0.014357
 O         1.814222         1.402367         0.306353
 C         2.225032        -0.879036         0.982027
 C         3.005017        -1.856868         0.541983
 C         2.972803        -1.822655        -0.921696
 C         3.829918        -0.684516        -1.357874
 C         2.198227        -0.621344        -1.305868
 O         1.497455        -0.386145        -2.534085
 H        -0.286897         0.730821        -0.781678
 H        -0.343487        -1.041382        -0.568526
 H        -0.418644         0.041663         0.968129
 H         2.346220         1.410088         1.064569
 H         2.019551        -0.607285         2.055715
 H         3.531021        -2.670152         1.085776
 H         2.886692        -2.818513        -1.370208
 H         4.447600        -0.174238        -0.686635
 H         4.180333        -0.749756        -2.427284
 H         2.061156         0.379814        -2.789988
