19
Iteration:  1781charge 0 multiplicity 1
 C         0.094276        -0.140907        -0.103364
 C         1.575094        -0.076383         0.024093
 O         2.038217         1.336506         0.237798
 C         2.131206        -0.926534         1.155720
 C         2.869121        -1.966387         0.534872
 C         3.026051        -1.768092        -0.896391
 C         3.699131        -0.520731        -1.497987
 C         2.230796        -0.510966        -1.292508
 O         1.340399        -0.376781        -2.379575
 H        -0.181464         0.606087        -0.887408
 H        -0.126750        -1.131144        -0.415331
 H        -0.420305         0.167614         0.858208
 H         1.414231         1.715699        -0.331198
 H         1.895042        -0.951546         2.213763
 H         3.664792        -2.666835         1.018668
 H         2.997056        -2.611052        -1.620673
 H         4.175623         0.011447        -0.693772
 H         4.304494        -0.591900        -2.524156
 H         1.825145        -0.172022        -3.214413
