19
Iteration:   318charge 0 multiplicity 1
 C         0.038375        -0.121426        -0.077046
 C         1.569386        -0.080590        -0.057870
 O         1.868695         1.341440         0.213719
 C         2.075511        -0.948243         1.009706
 C         2.883360        -1.989189         0.575485
 C         3.090695        -1.793580        -0.861843
 C         3.764951        -0.430580        -1.324521
 C         2.231798        -0.514318        -1.354394
 O         1.443920        -0.446934        -2.476192
 H        -0.294245         0.859442         0.327206
 H        -0.491185        -0.187836        -1.064286
 H        -0.415151        -0.738598         0.635986
 H         2.854700         1.429778         0.526191
 H         1.795398        -0.850890         2.084798
 H         3.233891        -2.861626         1.158265
 H         3.278046        -2.664849        -1.481560
 H         4.297301         0.275727        -0.654680
 H         4.228432        -0.632437        -2.238259
 H         1.769910         0.400708        -2.796352
