19
Iteration:    92charge 0 multiplicity 1
 C         0.120643        -0.125056        -0.117877
 C         1.563446        -0.088555        -0.042826
 O         2.026957         1.331962         0.123973
 C         2.094020        -0.901879         1.020599
 C         2.878180        -1.922523         0.520895
 C         3.104542        -1.808096        -0.958202
 C         3.751103        -0.500969        -1.284068
 C         2.191714        -0.571115        -1.272368
 O         1.321177        -0.423263        -2.374643
 H        -0.346946         0.312579         0.807856
 H        -0.264241         0.537732        -0.920437
 H        -0.326388        -1.108928        -0.261972
 H         1.499880         1.581602         0.921705
 H         1.794741        -0.780296         2.116009
 H         3.403707        -2.675858         1.168495
 H         3.288918        -2.766776        -1.488207
 H         4.206059        -0.065342        -0.423651
 H         4.275211        -0.159024        -2.245038
 H         1.571640         0.408266        -2.848065
