19
Iteration:  2196
 C         0.119518        -0.222385         0.001453
 C         1.563789         0.084935         0.037274
 O         1.750081         1.477543         0.450933
 C         2.232936        -0.868224         1.067501
 C         3.017231        -1.818665         0.557468
 C         2.868850        -1.851690        -0.935730
 C         3.754176        -0.810626        -1.556001
 C         2.187969        -0.490074        -1.357522
 O         1.493486        -0.434646        -2.625590
 H        -0.360146         0.419892        -0.767377
 H        -0.087241        -1.378045        -0.169781
 H        -0.352513         0.065772         0.961481
 H         2.501476         1.579268         1.136575
 H         2.073284        -0.316210         2.054444
 H         3.335672        -2.652245         1.252648
 H         2.650372        -2.758470        -1.457976
 H         4.542981        -0.363252        -0.927880
 H         4.104106        -0.913997        -2.563209
 H         1.868005         0.168550        -3.282634
