19
Iteration:  2328charge 0 multiplicity 1
 C        -0.007241         0.070982         0.027495
 C         1.532340         0.012035         0.000992
 O         1.852691         1.394233         0.492495
 C         2.190788        -0.926538         0.995016
 C         3.017725        -1.881036         0.462043
 C         3.052808        -1.800709        -1.016113
 C         3.734398        -0.548793        -1.514457
 C         2.178110        -0.577671        -1.366258
 O         1.433671        -0.649341        -2.482171
 H        -0.437865         0.352305        -1.016828
 H        -0.409449        -0.963185         0.166945
 H        -0.218601         0.737726         0.865458
 H         2.801056         1.316694         0.882094
 H         1.718733        -1.036287         1.929526
 H         3.668263        -2.510439         1.002723
 H         3.092237        -2.649372        -1.733064
 H         4.321825        -0.089379        -0.795504
 H         4.131765        -0.743211        -2.530929
 H         1.471393         0.294052        -2.780644
