19
Iteration:  2572
 C         0.050661        -0.033922         0.096087
 C         1.582331         0.041658         0.008903
 O         1.916944         1.399307         0.172397
 C         2.199292        -0.976156         1.162254
 C         2.768930        -1.983320         0.459536
 C         3.040445        -1.772503        -0.970286
 C         3.710459        -0.433056        -1.375166
 C         2.225827        -0.532500        -1.329778
 O         1.519458        -0.616379        -2.525375
 H        -0.550761         0.850986        -0.016898
 H        -0.316470        -0.980500        -0.524771
 H        -0.101779        -0.404616         1.171327
 H         2.848856         1.502204        -0.038180
 H         1.935063        -0.801869         2.172768
 H         3.183120        -2.861546         0.883772
 H         3.001708        -2.642656        -1.637575
 H         4.257312         0.184938        -0.693603
 H         4.133291        -0.337190        -2.447849
 H         0.809036         0.049022        -2.627547
