19
Iteration:  1615
 C         0.040499        -0.175170        -0.149371
 C         1.556647         0.029408         0.025534
 O         2.016002         1.293190         0.460643
 C         2.128287        -0.914844         1.059887
 C         2.984060        -1.831212         0.562245
 C         2.847587        -1.790500        -0.852263
 C         3.713518        -0.553533        -1.523982
 C         2.221984        -0.544930        -1.304728
 O         1.471500        -0.403631        -2.540546
 H        -0.255651         0.765134        -0.672913
 H        -0.375831        -1.082460        -0.683460
 H        -0.474396        -0.248816         0.794946
 H         1.390357         1.866090        -0.094087
 H         2.050914        -0.488515         2.130476
 H         3.331841        -2.708094         1.122202
 H         2.921466        -2.723344        -1.392511
 H         4.564743        -0.236061        -0.792982
 H         4.076774        -0.584657        -2.540105
 H         2.175209        -0.608942        -3.173648
