19
Iteration:  3655
 C        -0.012772        -0.177592         0.039500
 C         1.525329        -0.019731         0.023607
 O         1.886749         1.384086         0.260893
 C         2.148125        -0.963727         1.023078
 C         2.901101        -1.881908         0.511109
 C         3.083621        -1.778717        -1.006864
 C         3.827347        -0.513962        -1.359629
 C         2.262559        -0.495948        -1.287122
 O         1.429853        -0.523714        -2.460033
 H        -0.455787         0.801604        -0.558801
 H        -0.299194        -1.055546        -0.584809
 H        -0.491007        -0.072126         1.095190
 H         2.415329         1.610126        -0.597679
 H         1.869168        -0.923942         2.057303
 H         3.454569        -2.704987         1.081217
 H         3.161917        -2.699898        -1.586814
 H         4.362475         0.158833        -0.678140
 H         4.275645        -0.387901        -2.436056
 H         0.932716         0.292865        -2.706495
