19
Iteration:  4162
 C         0.110049        -0.496034         0.166919
 C         1.547980         0.023110         0.030499
 O         1.657311         1.453981         0.231542
 C         2.351415        -0.815723         1.040173
 C         2.806734        -1.991837         0.455149
 C         2.826068        -1.830189        -0.976842
 C         3.758971        -0.751190        -1.363483
 C         2.307949        -0.369509        -1.341294
 O         1.549977        -0.184025        -2.525599
 H         0.248609        -1.648569         0.013021
 H        -0.147207        -0.175881         1.155874
 H        -0.531145        -0.127437        -0.771161
 H         2.589106         1.586155        -0.125034
 H         2.512533        -0.692061         2.160820
 H         3.484691        -2.657078         1.034497
 H         2.672987        -2.585896        -1.804108
 H         4.530388        -0.366281        -0.605139
 H         4.216166        -0.757112        -2.416463
 H         1.696402         0.705598        -2.854380
