19
Iteration:   808charge 0 multiplicity 1
 C        -0.067159        -0.078562        -0.097989
 C         1.596677         0.020567        -0.019869
 O         1.841114         1.361152         0.187000
 C         2.168701        -0.981836         1.092215
 C         2.909525        -1.917770         0.614348
 C         2.868786        -1.813224        -0.859110
 C         3.743619        -0.640404        -1.298465
 C         2.248160        -0.499113        -1.276336
 O         1.626140        -0.358504        -2.580486
 H        -0.384431         0.379787         0.859531
 H        -0.600206         0.453264        -0.869120
 H        -0.312266        -1.152523         0.231282
 H         2.718082         1.736751        -0.211777
 H         2.060390        -0.609917         2.090370
 H         3.538643        -2.659306         1.101341
 H         3.046666        -2.516700        -1.672935
 H         4.318993        -0.063888        -0.651887
 H         4.127860        -0.567613        -2.369232
 H         1.502352        -1.300765        -2.853391
