19
Iteration:   853charge 0 multiplicity 1
 C        -0.001035        -0.033063        -0.249508
 C         1.508928        -0.029026        -0.052587
 O         1.907319         1.359461         0.295336
 C         2.101376        -0.910408         1.105167
 C         2.899804        -1.856694         0.642143
 C         3.023004        -1.835854        -0.843332
 C         3.731182        -0.618025        -1.406022
 C         2.263114        -0.534951        -1.337061
 O         1.552985        -0.391776        -2.447925
 H        -0.399731        -0.427644         0.720696
 H        -0.452676         0.983915        -0.391043
 H        -0.569720        -0.742924        -0.907692
 H         2.813138         1.598410        -0.125727
 H         1.957338        -0.714384         2.178387
 H         3.529757        -2.653157         1.111580
 H         3.011292        -2.818749        -1.369043
 H         4.456552        -0.030056        -0.860131
 H         4.057795        -0.810806        -2.481559
 H         1.030757        -1.230626        -2.518056
