19
Iteration:  3680charge 0 multiplicity 1
 C         0.007608        -0.041118        -0.047485
 C         1.554338        -0.043091        -0.042214
 O         1.914090         1.296127         0.528737
 C         2.146250        -0.945122         1.045793
 C         2.996224        -1.866099         0.578344
 C         3.033161        -1.726444        -0.960156
 C         3.669859        -0.399111        -1.453518
 C         2.147495        -0.588025        -1.326153
 O         1.478891        -0.648255        -2.601683
 H        -0.364309         0.671040        -0.770824
 H        -0.457006        -1.099774        -0.325340
 H        -0.301723         0.335248         0.917862
 H         2.517457         1.746371        -0.121400
 H         1.969252        -0.660246         2.075645
 H         3.656896        -2.553981         1.121739
 H         3.113697        -2.649061        -1.591606
 H         4.296321         0.188956        -0.794408
 H         4.022508        -0.368285        -2.478900
 H         1.709706         0.129632        -3.174662
