19
Iteration:  1501charge 0 multiplicity 1
 C        -0.030957        -0.094559         0.077007
 C         1.539640        -0.046189         0.012318
 O         1.961796         1.318070         0.373993
 C         2.098412        -0.897784         1.020731
 C         2.919745        -1.880823         0.523378
 C         2.950011        -1.801015        -0.968483
 C         3.779760        -0.618239        -1.414005
 C         2.224574        -0.524497        -1.290016
 O         1.548454        -0.452966        -2.584099
 H        -0.437781         0.703680        -0.485340
 H        -0.431750        -0.999302        -0.280688
 H        -0.374768        -0.192897         1.108795
 H         1.752896         1.888342        -0.472610
 H         2.146996        -0.438407         2.033961
 H         3.398061        -2.790113         0.980120
 H         2.956767        -2.559694        -1.751341
 H         4.401758        -0.001502        -0.758594
 H         4.165348        -0.735776        -2.387301
 H         1.602653         0.445192        -2.933580
