19
Iteration:  2038charge 0 multiplicity 1
 C         0.100529        -0.109728        -0.081158
 C         1.583244         0.034967         0.027473
 O         1.840586         1.425538         0.500078
 C         2.195944        -0.874647         0.956201
 C         2.894341        -1.868688         0.521084
 C         3.012147        -1.785570        -0.976856
 C         3.790579        -0.727250        -1.562201
 C         2.282036        -0.492445        -1.328245
 O         1.344890        -0.455968        -2.411514
 H        -0.190573         0.603459        -0.924826
 H        -0.174702        -1.105413        -0.359347
 H        -0.555103         0.276822         0.724930
 H         2.761501         1.596910         0.371248
 H         1.819457        -0.888141         2.065617
 H         3.494739        -2.602309         1.085789
 H         2.929495        -2.609758        -1.643091
 H         4.513423        -0.201005        -0.853947
 H         4.131671        -0.568597        -2.571566
 H         1.105566        -1.314293        -2.760651
