19
Iteration:   874charge 0 multiplicity 1
 C         0.090334        -0.022085        -0.102623
 C         1.586261         0.070755         0.029761
 O         1.904233         1.449191         0.205184
 C         2.012288        -1.016285         1.093111
 C         2.835936        -1.958650         0.626564
 C         3.039073        -1.723720        -0.915500
 C         3.852626        -0.555387        -1.397560
 C         2.252801        -0.542695        -1.241906
 O         1.495358        -0.578897        -2.543113
 H        -0.584212        -0.380907         0.698214
 H        -0.334770         0.893587        -0.577010
 H        -0.158610        -0.789148        -0.934413
 H         2.816141         1.625799         0.197954
 H         1.573542        -0.955040         2.097191
 H         3.244683        -2.856642         1.160674
 H         3.053960        -2.572759        -1.630690
 H         4.328410         0.073819        -0.670144
 H         4.180424        -0.393523        -2.481017
 H         0.575293        -0.778869        -2.338372
