19
Iteration:  3155charge 0 multiplicity 1
 C         0.085938        -0.052306        -0.101188
 C         1.550056         0.002404        -0.006829
 O         2.038758         1.343771         0.346657
 C         2.164837        -0.981645         1.033645
 C         2.928179        -1.911088         0.455854
 C         3.166599        -1.705601        -0.975940
 C         3.686354        -0.359297        -1.385440
 C         2.199337        -0.621434        -1.270073
 O         1.293067        -0.650837        -2.379736
 H        -0.201481         0.479545        -0.929199
 H        -0.315479        -1.091157        -0.267633
 H        -0.450590         0.305656         0.823364
 H         1.545567         1.886641        -0.293753
 H         1.889061        -1.147559         2.061447
 H         3.171731        -2.806684         1.035843
 H         3.292187        -2.542953        -1.569593
 H         4.113513         0.349655        -0.567436
 H         3.889468        -0.120848        -2.436562
 H         1.502185        -0.049903        -3.099945
