19
Iteration:  4324charge 0 multiplicity 1
 C         0.027895         0.048873        -0.117746
 C         1.527725        -0.101535         0.061531
 O         2.001202         1.228141         0.440526
 C         2.047243        -1.050530         1.069037
 C         3.043154        -1.907385         0.495396
 C         3.169203        -1.723235        -0.997928
 C         3.676174        -0.264732        -1.502947
 C         2.236132        -0.574890        -1.392262
 O         1.320920        -0.609087        -2.454209
 H        -0.580310        -0.741254        -0.723712
 H        -0.448182         0.101454         0.798683
 H        -0.280658         1.066849        -0.570342
 H         2.971429         1.203918         0.509240
 H         1.803722        -0.915776         2.135126
 H         3.462238        -2.746850         1.122417
 H         3.551493        -2.591331        -1.590615
 H         3.981389         0.645607        -0.864656
 H         4.186886        -0.186450        -2.509456
 H         0.582944        -0.062765        -2.249983
