19
Iteration:  4924charge 0 multiplicity 1
 C        -0.068696         0.060177        -0.081043
 C         1.543705        -0.062733         0.039255
 O         1.916456         1.311547         0.353324
 C         2.150220        -1.120777         1.068757
 C         3.179938        -1.887931         0.509943
 C         3.145877        -1.781139        -0.949323
 C         3.562278        -0.377532        -1.525259
 C         2.181740        -0.571811        -1.304158
 O         1.420163        -0.541127        -2.489711
 H        -0.483784         0.251509        -1.030471
 H        -0.620466        -0.624608         0.439929
 H        -0.133332         0.962897         0.501141
 H         2.804476         1.284410         0.518035
 H         1.790589        -1.029870         2.167235
 H         3.709854        -2.660326         1.084032
 H         3.471533        -2.662403        -1.455592
 H         4.234000         0.211497        -0.881590
 H         3.849602        -0.528158        -2.548252
 H         0.765210         0.171376        -2.495112
