19
Iteration:  1216charge 0 multiplicity 1
 C         0.033062        -0.103533        -0.045221
 C         1.587937        -0.078435        -0.086748
 O         1.985969         1.318072         0.195456
 C         2.113929        -0.930070         0.984594
 C         2.731956        -2.029154         0.500955
 C         2.974483        -1.784203        -0.899772
 C         3.852356        -0.250973        -1.196733
 C         2.274177        -0.552174        -1.298905
 O         1.458097        -0.533741        -2.478720
 H        -0.459426         0.331450        -0.925910
 H        -0.254679        -1.155456        -0.001687
 H        -0.253884         0.305637         0.980845
 H         2.573822         1.531829        -0.607882
 H         2.032846        -0.816795         2.047719
 H         3.049511        -2.893121         1.093142
 H         3.190023        -2.560670        -1.625735
 H         4.222567         0.157322        -0.219041
 H         4.249467        -0.121374        -2.141389
 H         0.847156         0.219348        -2.352474
