19
Iteration:   156
 C        -0.042874        -0.086756         0.007476
 C         1.534870         0.041853        -0.071936
 O         1.872911         1.423621         0.410669
 C         2.176639        -0.884545         0.987962
 C         2.843481        -1.970518         0.500423
 C         2.913598        -1.829909        -0.926748
 C         3.783273        -0.588540        -1.377564
 C         2.260632        -0.509753        -1.357230
 O         1.665221        -0.587765        -2.528336
 H        -0.184379        -0.706686         0.933940
 H        -0.369491         0.942183         0.239248
 H        -0.443738        -0.667239        -0.726722
 H         1.612088         2.057286        -0.372243
 H         2.114785        -0.647678         2.069058
 H         3.610614        -2.424093         1.152540
 H         2.866310        -2.716085        -1.590716
 H         4.194871        -0.072761        -0.571366
 H         4.295227        -0.630210        -2.390333
 H         1.179084         0.232739        -2.791385
