19
Iteration:  3025charge 0 multiplicity 1
 C         0.092041        -0.283174         0.209737
 C         1.541746         0.025859         0.019089
 O         1.936404         1.436944         0.030537
 C         2.200161        -0.952426         1.047577
 C         2.849513        -1.979293         0.435124
 C         3.019547        -1.818310        -0.966960
 C         3.699756        -0.439116        -1.376768
 C         2.208087        -0.516900        -1.251602
 O         1.510842        -0.443199        -2.455404
 H        -0.431328         0.123368        -0.629487
 H        -0.012902        -1.405642        -0.055347
 H        -0.370897         0.171316         1.162534
 H         1.180881         1.978494         0.450434
 H         2.100950        -0.969966         2.162435
 H         3.316980        -2.743318         1.052993
 H         2.966458        -2.705018        -1.558548
 H         4.232945         0.041669        -0.618291
 H         4.066257        -0.465073        -2.452876
 H         1.585787         0.446361        -2.901615
