19
Iteration:   622
 C         0.069024        -0.018210        -0.030711
 C         1.536775        -0.060784        -0.065589
 O         1.973539         1.352896         0.169145
 C         2.093897        -0.993231         1.079711
 C         2.883017        -1.940601         0.600977
 C         3.068406        -1.816846        -0.886237
 C         3.649205        -0.381261        -1.290991
 C         2.179018        -0.551774        -1.324868
 O         1.606019        -0.482646        -2.664814
 H        -0.229556         0.384905         0.973614
 H        -0.391816         0.659389        -0.777729
 H        -0.447961        -1.028476        -0.001954
 H         1.738307         1.542867         1.144556
 H         1.844105        -0.879170         2.180123
 H         3.314873        -2.769768         1.218664
 H         3.268098        -2.726598        -1.488869
 H         3.959476         0.123888        -0.402895
 H         4.209455        -0.185247        -2.189669
 H         0.836982        -1.080331        -2.515714
