19
Iteration:  3254charge 0 multiplicity 1
 C         0.111791        -0.236121        -0.117111
 C         1.560806        -0.003747         0.141547
 O         1.830044         1.406370         0.232212
 C         2.262549        -0.879731         1.102772
 C         3.005325        -1.867563         0.492505
 C         2.896045        -1.793045        -0.966054
 C         3.676952        -0.633197        -1.561711
 C         2.253960        -0.513205        -1.223464
 O         1.469124        -0.423030        -2.414148
 H        -0.224917         0.246963        -1.019131
 H        -0.111531        -1.388337        -0.243689
 H        -0.577456         0.109813         0.698438
 H         1.105680         1.841997         0.819583
 H         2.275150        -0.765204         2.198198
 H         3.507469        -2.581150         1.225812
 H         2.669615        -2.801535        -1.469320
 H         4.364258        -0.027223        -0.901144
 H         4.129252        -0.565159        -2.564542
 H         1.982302         0.129258        -3.036350
