19
Iteration:     8charge 0 multiplicity 1
 C        -0.011221        -0.094698        -0.005708
 C         1.562500        -0.039307        -0.018626
 O         1.968453         1.340843         0.244494
 C         2.113143        -0.979495         1.071095
 C         2.909965        -1.930457         0.503855
 C         3.101914        -1.767432        -0.953257
 C         3.758310        -0.468450        -1.356847
 C         2.188375        -0.507365        -1.350206
 O         1.454345        -0.434927        -2.534289
 H        -0.235731         0.344391         0.946086
 H        -0.421969         0.456097        -0.859479
 H        -0.427992        -1.182067        -0.133782
 H         1.946973         1.647340         1.132205
 H         2.043183        -0.935508         2.215715
 H         3.657869        -2.428985         1.182890
 H         3.001680        -2.538355        -1.729077
 H         4.283109         0.174947        -0.698681
 H         4.116718        -0.522694        -2.434775
 H         0.914744        -1.247913        -2.461173
