19
Iteration:  3040charge 0 multiplicity 1
 C         0.146292        -0.274237         0.105837
 C         1.677313         0.037487         0.041325
 O         1.959568         1.480222         0.052532
 C         2.194572        -0.955961         1.032923
 C         2.748144        -2.073621         0.473641
 C         3.037074        -1.717279        -1.017019
 C         3.699359        -0.411520        -1.297567
 C         2.204445        -0.515167        -1.263099
 O         1.426980        -0.547831        -2.428163
 H        -0.536483         0.274334        -0.619174
 H         0.109258        -1.404012        -0.010955
 H        -0.187062        -0.189440         1.132928
 H         1.077183         1.935352        -0.076928
 H         2.133056        -0.691507         2.073330
 H         3.084560        -2.982091         0.984391
 H         3.090534        -2.382256        -1.882186
 H         4.385514         0.099931        -0.536514
 H         4.104809        -0.225056        -2.235961
 H         1.189129         0.378524        -2.519723
