19
Iteration:  3021
 C         0.036226        -0.290804         0.196794
 C         1.563732         0.013090         0.038419
 O         1.918916         1.419389         0.037491
 C         2.216441        -0.934021         1.070015
 C         2.883802        -1.954393         0.467854
 C         2.994717        -1.822328        -0.983385
 C         3.690594        -0.471595        -1.387719
 C         2.213477        -0.516063        -1.281995
 O         1.515976        -0.428025        -2.470184
 H        -0.507373         0.220017        -0.643843
 H        -0.072069        -1.309702         0.094061
 H        -0.264366         0.182631         1.113272
 H         1.273510         1.916707         0.540609
 H         1.972053        -0.919286         2.123811
 H         3.406824        -2.791156         0.971854
 H         2.981684        -2.777684        -1.616848
 H         4.319667         0.134394        -0.672629
 H         4.118162        -0.429532        -2.396398
 H         1.744485         0.435566        -2.822559
