19
Iteration:   978charge 0 multiplicity 1
 C         0.107598        -0.136291        -0.226101
 C         1.609264        -0.016859         0.030810
 O         1.866074         1.390328         0.357694
 C         2.109509        -0.956936         1.068860
 C         2.811480        -1.942398         0.600091
 C         3.008340        -1.777296        -0.911204
 C         3.834589        -0.593728        -1.419617
 C         2.294329        -0.545861        -1.340620
 O         1.358628        -0.351104        -2.402301
 H        -0.294343         0.606558        -0.946358
 H        -0.238880        -1.122835        -0.663216
 H        -0.572671         0.028246         0.675784
 H         2.578580         1.663978        -0.296253
 H         1.868795        -0.763176         2.095331
 H         3.286763        -2.699154         1.226839
 H         3.131262        -2.753785        -1.391999
 H         4.262529         0.056435        -0.724183
 H         4.320489        -0.595790        -2.464432
 H         1.867796        -0.598584        -3.193891
