19
Iteration:   698charge 0 multiplicity 1
 C        -0.032057        -0.004405        -0.128642
 C         1.549786        -0.033064        -0.026547
 O         1.801479         1.324435         0.347096
 C         2.102881        -0.942005         1.176393
 C         2.961607        -1.850658         0.633147
 C         3.030960        -1.852626        -0.871515
 C         3.709590        -0.579595        -1.422581
 C         2.286064        -0.580277        -1.337063
 O         1.508066        -0.408482        -2.585176
 H        -0.608417        -0.211587         0.807042
 H        -0.335321         0.946864        -0.589654
 H        -0.322917        -0.859234        -0.866198
 H         2.600535         1.645162        -0.035171
 H         2.155431        -0.567958         2.239949
 H         3.741909        -2.447728         1.113357
 H         3.102170        -2.759223        -1.485241
 H         4.410349        -0.090706        -0.715759
 H         4.043992        -0.751829        -2.376954
 H         2.057256        -0.635385        -3.335822
