19
Iteration:  1897charge 0 multiplicity 1
 C         0.090821        -0.176616        -0.170496
 C         1.635447        -0.040383         0.069433
 O         1.943887         1.354161         0.256783
 C         2.208958        -0.935563         1.111673
 C         2.961502        -1.855647         0.541110
 C         2.860423        -1.795202        -0.949400
 C         3.707981        -0.605510        -1.437405
 C         2.278063        -0.448639        -1.309196
 O         1.364724        -0.453978        -2.434936
 H        -0.276142         0.484920        -1.029229
 H        -0.197091        -1.255210        -0.274877
 H        -0.498730         0.340496         0.616521
 H         2.809519         1.421499         0.556618
 H         2.041209        -0.665803         2.118733
 H         3.449347        -2.674833         1.128614
 H         2.749804        -2.581076        -1.703664
 H         4.160388        -0.003093        -0.711757
 H         4.299082        -0.628224        -2.447150
 H         0.721331         0.257931        -2.453866
