19
Iteration:   335charge 0 multiplicity 1
 C        -0.020731        -0.055627        -0.155641
 C         1.561952        -0.078361         0.068977
 O         1.889046         1.338615         0.155689
 C         2.093463        -0.969711         1.180864
 C         2.897713        -1.901681         0.561414
 C         3.116693        -1.837804        -0.943479
 C         3.683950        -0.462676        -1.369717
 C         2.227889        -0.691043        -1.295200
 O         1.451259        -0.327133        -2.482818
 H        -0.512506         0.881063         0.214921
 H        -0.041453        -0.349102        -1.185000
 H        -0.443674        -0.999119         0.334235
 H         2.701981         1.325777         0.802487
 H         1.976099        -0.924908         2.297585
 H         3.546807        -2.582754         1.126009
 H         3.335168        -2.645318        -1.673368
 H         4.136115         0.014898        -0.532980
 H         4.148410        -0.170140        -2.388239
 H         2.080568         0.039939        -3.112890
