19
Iteration:   224charge 0 multiplicity 1
 C        -0.038834        -0.149065        -0.097742
 C         1.491871         0.015000         0.032839
 O         1.967053         1.341748         0.106556
 C         2.061111        -0.964977         1.081740
 C         2.856821        -1.870408         0.564052
 C         3.134473        -1.794519        -0.916340
 C         3.770940        -0.529963        -1.398928
 C         2.267241        -0.601228        -1.263041
 O         1.446376        -0.361975        -2.412193
 H        -0.663116         0.062264         0.752377
 H        -0.422663         0.429534        -0.942604
 H        -0.176225        -1.277494        -0.279255
 H         2.699259         1.352861         0.671834
 H         1.743275        -1.017174         2.131805
 H         3.276359        -2.645424         1.206316
 H         3.200678        -2.710128        -1.478376
 H         4.322895        -0.024089        -0.525924
 H         4.062470        -0.512730        -2.427247
 H         1.930070         0.223670        -3.035407
