19
Iteration:  4892charge 0 multiplicity 1
 C        -0.009479        -0.070364        -0.057399
 C         1.548744        -0.033171         0.029391
 O         2.023897         1.241544         0.476752
 C         2.108849        -0.999196         1.033884
 C         2.955643        -1.788892         0.475327
 C         3.108442        -1.724789        -1.041075
 C         3.685722        -0.344029        -1.473372
 C         2.167750        -0.467606        -1.380178
 O         1.331005        -0.693670        -2.456597
 H        -0.465319        -0.141325        -1.004898
 H        -0.500703        -0.765628         0.578962
 H        -0.298687         0.914180         0.294200
 H         3.053135         1.114331         0.614007
 H         1.986025        -0.753127         2.155238
 H         3.603925        -2.532871         0.980028
 H         3.326051        -2.617584        -1.590371
 H         4.415759         0.126389        -0.835237
 H         4.178647        -0.344369        -2.425302
 H         1.340471         0.170831        -2.907397
