19
Iteration:  1457
 C         0.102551        -0.120285        -0.246065
 C         1.653841         0.065574         0.043918
 O         1.934489         1.411339         0.541707
 C         2.165984        -0.931517         1.067389
 C         2.788807        -1.944202         0.443886
 C         3.078952        -1.796542        -0.940415
 C         3.686637        -0.597040        -1.515444
 C         2.263752        -0.489829        -1.346898
 O         1.414250        -0.558124        -2.382918
 H        -0.043825         0.607734        -1.023302
 H        -0.155419        -1.079682        -0.591690
 H        -0.430075         0.090006         0.724991
 H         1.123187         1.930511         0.119342
 H         2.330090        -0.648177         2.177922
 H         3.128631        -2.793038         1.146020
 H         2.983678        -2.655348        -1.596106
 H         4.216049         0.106113        -0.818321
 H         4.046373        -0.762916        -2.452723
 H         1.454887         0.125978        -3.071741
