19
Iteration:  2705
 C         0.129237        -0.164110        -0.009145
 C         1.632469        -0.060941         0.011348
 O         1.832480         1.352411         0.159883
 C         2.233681        -0.936194         1.075337
 C         2.860138        -1.956103         0.537228
 C         2.920833        -1.764276        -0.959306
 C         3.812147        -0.510999        -1.393702
 C         2.238189        -0.510654        -1.333426
 O         1.350815        -0.438778        -2.410635
 H        -0.306127         0.654292        -0.696596
 H        -0.383541        -1.196071        -0.139368
 H        -0.223024         0.040075         1.005397
 H         2.787108         1.558249        -0.050777
 H         2.357632        -0.638524         2.142357
 H         3.189183        -2.900931         1.025613
 H         2.903046        -2.572125        -1.689186
 H         4.412315        -0.001419        -0.571287
 H         4.377241        -0.411263        -2.296031
 H         1.139072         0.495612        -2.643105
