19
Iteration:  1598
 C         0.119321        -0.133848        -0.114066
 C         1.600003        -0.001278        -0.025493
 O         1.951613         1.336800         0.437561
 C         2.142833        -0.889491         1.141216
 C         2.838054        -1.900722         0.598593
 C         2.999842        -1.800813        -0.984345
 C         3.753082        -0.645801        -1.438700
 C         2.260654        -0.456033        -1.404737
 O         1.412524        -0.414879        -2.506949
 H        -0.410281         0.446688        -0.885609
 H        -0.078937        -1.161951        -0.349414
 H        -0.371424         0.039721         0.907571
 H         1.156481         2.000444         0.335634
 H         1.843049        -0.792292         2.146964
 H         3.532372        -2.543735         1.155099
 H         2.738995        -2.626736        -1.648701
 H         4.248212         0.062027        -0.843753
 H         4.214984        -0.773232        -2.423777
 H         1.854261        -0.651774        -3.328527
