19
Iteration:  3334
 C        -0.049361        -0.077130         0.300650
 C         1.473107         0.017992        -0.005764
 O         1.829105         1.345646         0.011519
 C         2.297909        -0.971760         1.054003
 C         3.012740        -2.051677         0.466924
 C         2.970800        -1.792957        -1.013532
 C         3.734049        -0.428049        -1.305446
 C         2.148928        -0.571978        -1.279841
 O         1.624508        -0.453500        -2.583890
 H        -0.827495         0.583058        -0.211996
 H        -0.445443        -1.071563        -0.113718
 H        -0.279457        -0.249993         1.338098
 H         1.292740         1.808544         0.770499
 H         2.355882        -0.758835         2.165943
 H         3.649837        -2.753191         0.995611
 H         2.947233        -2.570077        -1.708707
 H         4.342513        -0.097625        -0.461601
 H         4.065695        -0.378567        -2.307100
 H         1.702801         0.526918        -2.714523
