19
Iteration:  2594charge 0 multiplicity 1
 C         0.039209        -0.001559        -0.004746
 C         1.575020        -0.096028         0.092522
 O         1.986510         1.385685         0.049579
 C         2.132622        -1.061797         1.087795
 C         2.908218        -2.036120         0.551692
 C         3.069614        -1.718913        -0.931463
 C         3.692856        -0.325061        -1.395810
 C         2.204168        -0.546814        -1.226598
 O         1.393550        -0.547823        -2.435397
 H        -0.179788         0.938085        -0.486173
 H        -0.296814        -1.007794        -0.572603
 H        -0.600148         0.025187         0.953203
 H         2.910935         1.452280        -0.299262
 H         1.873567        -0.933505         2.105655
 H         3.224745        -2.977003         0.903878
 H         3.248627        -2.577205        -1.619842
 H         4.358108         0.125815        -0.677449
 H         4.173799        -0.463480        -2.436503
 H         0.859201         0.254223        -2.560055
