19
Iteration:  1076
 C        -0.033065        -0.150299         0.041850
 C         1.480711        -0.067604        -0.022940
 O         1.854235         1.317864         0.090296
 C         2.132658        -0.958162         1.071471
 C         2.852954        -1.941426         0.530307
 C         3.070954        -1.844255        -0.947319
 C         3.799694        -0.533644        -1.273115
 C         2.292054        -0.522522        -1.269904
 O         1.553322        -0.293161        -2.537349
 H        -0.480094         0.462904        -0.751885
 H        -0.610141        -1.087370         0.000118
 H        -0.329323         0.227883         1.075153
 H         2.813751         1.455084        -0.103914
 H         1.933518        -0.704421         2.139140
 H         3.245558        -2.828397         1.126562
 H         3.463561        -2.658347        -1.570225
 H         4.383641        -0.122342        -0.467315
 H         4.163086        -0.471967        -2.278823
 H         0.859017         0.357812        -2.373050
