19
Iteration:  4609
 C         0.017888         0.105224        -0.030154
 C         1.522570        -0.090785        -0.001632
 O         2.058934         1.170306         0.530971
 C         2.081904        -0.983846         0.986082
 C         3.015751        -1.856395         0.434694
 C         3.158576        -1.618496        -1.005983
 C         3.634391        -0.302978        -1.488264
 C         2.147213        -0.555627        -1.366807
 O         1.350085        -0.731457        -2.502459
 H        -0.473186        -0.883253        -0.036900
 H        -0.202375         0.729562         0.813681
 H        -0.302334         0.562380        -1.033791
 H         2.695985         0.823963         1.148028
 H         1.805626        -0.940132         2.037783
 H         3.497538        -2.544082         1.161674
 H         3.266605        -2.579385        -1.625197
 H         4.178334         0.397656        -0.844831
 H         4.117140        -0.321996        -2.447622
 H         1.046540         0.165482        -2.747482
