19
Iteration:  1910
 C         0.114164        -0.141758        -0.137136
 C         1.587271         0.067703         0.011612
 O         1.935790         1.410918         0.308401
 C         2.178553        -0.980250         1.125238
 C         2.923505        -1.956520         0.546563
 C         2.900088        -1.760253        -0.967706
 C         3.704790        -0.526566        -1.456101
 C         2.156999        -0.486536        -1.257238
 O         1.461843        -0.519568        -2.474369
 H        -0.260315         0.151312        -1.142504
 H        -0.101420        -1.168965        -0.128255
 H        -0.436654         0.233285         0.766891
 H         2.966796         1.452986         0.175464
 H         2.299716        -0.665553         2.182189
 H         3.427726        -2.819969         0.956503
 H         2.808936        -2.665316        -1.528659
 H         4.570397        -0.256092        -0.856696
 H         3.863634        -0.525949        -2.550018
 H         0.825782         0.226663        -2.381769
