19
Iteration:  3036charge 0 multiplicity 1
 C         0.165076        -0.258249         0.128086
 C         1.631728         0.036594         0.033406
 O         1.955652         1.481534         0.039691
 C         2.186554        -0.985350         1.007213
 C         2.750660        -2.046901         0.470672
 C         3.053467        -1.722860        -0.999630
 C         3.696877        -0.414711        -1.309879
 C         2.202022        -0.526470        -1.241689
 O         1.449998        -0.523335        -2.432209
 H        -0.454399         0.184515        -0.602481
 H         0.089177        -1.428043         0.090233
 H        -0.338294        -0.284268         1.172707
 H         1.130026         1.940422         0.023123
 H         2.240210        -0.750579         2.095561
 H         3.090887        -2.882758         1.072273
 H         3.056007        -2.390490        -1.818567
 H         4.313814        -0.028328        -0.553031
 H         4.044502        -0.283039        -2.381713
 H         1.223407         0.417831        -2.665489
