19
Iteration:   879
 C         0.127264         0.014225        -0.087085
 C         1.573199         0.092902         0.020443
 O         1.893146         1.422460         0.197648
 C         1.982461        -0.975445         1.092497
 C         2.809234        -1.991404         0.597758
 C         3.067740        -1.745962        -0.935165
 C         3.842236        -0.521344        -1.384061
 C         2.221589        -0.565683        -1.283842
 O         1.535204        -0.615206        -2.525780
 H        -0.458477        -0.338207         0.778878
 H        -0.423906         0.876748        -0.518560
 H        -0.129096        -0.893668        -0.614400
 H         2.875243         1.695163         0.324522
 H         1.632504        -0.942766         2.132066
 H         3.188280        -2.887160         1.046966
 H         3.060471        -2.607992        -1.583386
 H         4.393894         0.157412        -0.660398
 H         4.077204        -0.184218        -2.356678
 H         0.565566        -0.667984        -2.332474
