19
Iteration:   564
 C         0.022353        -0.070726        -0.116598
 C         1.539823        -0.059853        -0.022246
 O         2.010481         1.329823         0.325168
 C         2.028024        -1.024556         1.076215
 C         2.887591        -1.918484         0.563375
 C         3.080135        -1.726308        -0.862674
 C         3.669479        -0.468200        -1.444818
 C         2.219353        -0.571592        -1.258104
 O         1.572632        -0.401737        -2.522004
 H        -0.378120         0.826310         0.411855
 H        -0.101514         0.031152        -1.208386
 H        -0.334522        -1.019208         0.129882
 H         1.522144         1.866277        -0.251989
 H         1.748912        -0.901206         2.074967
 H         3.585942        -2.537504         1.063848
 H         3.148005        -2.713545        -1.292936
 H         4.320298         0.165867        -0.780032
 H         4.104899        -0.655627        -2.425107
 H         0.817755        -1.021414        -2.572134
