19
Iteration:   838charge 0 multiplicity 1
 C        -0.033457        -0.033126        -0.142729
 C         1.534832        -0.025704        -0.009559
 O         1.885687         1.274331         0.330431
 C         2.094151        -0.785225         1.032937
 C         2.930983        -1.836445         0.639926
 C         3.000699        -1.882028        -0.875579
 C         3.762026        -0.646984        -1.423527
 C         2.195678        -0.687629        -1.240880
 O         1.581402        -0.322436        -2.538108
 H        -0.615614        -0.182178         0.755451
 H        -0.226734         0.919188        -0.556861
 H        -0.129859        -0.864266        -0.901686
 H         2.603403         1.525358        -0.216888
 H         2.012687        -0.338342         2.016736
 H         3.515409        -2.258026         1.417708
 H         2.961667        -2.755403        -1.515239
 H         4.439079        -0.164965        -0.681871
 H         4.001143        -0.456181        -2.489254
 H         1.259684        -1.077765        -3.047494
