19
Iteration:  3851charge 0 multiplicity 1
 C         0.160274        -0.345316        -0.068525
 C         1.620229        -0.000936         0.070609
 O         1.873956         1.361214         0.181022
 C         2.189190        -0.861267         1.132210
 C         2.934812        -1.863954         0.520218
 C         2.906126        -1.816082        -1.013452
 C         3.680299        -0.620958        -1.536990
 C         2.229798        -0.540917        -1.264493
 O         1.453837        -0.284317        -2.337858
 H        -0.128745        -0.104481        -1.156589
 H         0.142171        -1.426741         0.094697
 H        -0.463622         0.102823         0.699207
 H         0.945814         1.794462         0.215325
 H         2.239868        -0.610414         2.261710
 H         3.368093        -2.660592         1.118675
 H         2.665345        -2.787068        -1.422155
 H         4.408231        -0.093042        -0.811959
 H         4.144466        -0.455516        -2.508096
 H         1.900342         0.418464        -2.836884
