19
Iteration:   162
 C        -0.064352        -0.114474        -0.001234
 C         1.553354         0.034899        -0.128416
 O         1.901608         1.434192         0.401219
 C         2.227964        -0.891019         0.960637
 C         2.839819        -1.945678         0.554224
 C         2.947871        -1.823281        -0.934605
 C         3.790018        -0.625379        -1.334993
 C         2.249533        -0.484383        -1.361196
 O         1.588955        -0.585177        -2.526410
 H        -0.322919        -0.631341         0.926407
 H        -0.411434         0.917771         0.175367
 H        -0.609319        -0.640318        -0.891900
 H         1.404305         2.082214        -0.039433
 H         2.119448        -0.696204         2.010635
 H         3.502617        -2.586996         1.141722
 H         3.000437        -2.686325        -1.601727
 H         4.399887        -0.116927        -0.525062
 H         4.324841        -0.560173        -2.252813
 H         1.333798         0.328859        -2.776842
