19
Iteration:  4843
 C         0.047135        -0.023234         0.066235
 C         1.597638        -0.137860         0.045280
 O         1.830127         1.317348         0.281560
 C         2.233406        -0.989305         1.102355
 C         2.927613        -1.959256         0.425311
 C         3.066945        -1.703740        -0.970265
 C         3.707397        -0.421260        -1.432189
 C         2.224763        -0.559293        -1.364793
 O         1.382092        -0.491729        -2.444819
 H        -0.537432        -0.384462        -0.824870
 H        -0.299093        -0.641277         0.952217
 H        -0.316003         0.971324         0.289094
 H         2.729947         1.373780         0.374688
 H         1.800581        -0.884758         2.056033
 H         3.304785        -2.949042         0.733040
 H         3.322182        -2.510598        -1.718954
 H         4.101376         0.474032        -0.845927
 H         4.207880        -0.383534        -2.444612
 H         1.739304         0.056729        -3.200435
