19
Iteration:  3886charge 0 multiplicity 1
 C         0.057046        -0.383571         0.132223
 C         1.612447         0.008466         0.061702
 O         1.839702         1.445485         0.193378
 C         2.384426        -0.842390         1.106338
 C         2.848381        -1.958167         0.526720
 C         2.884450        -1.818997        -1.015852
 C         3.802407        -0.639348        -1.371575
 C         2.217625        -0.496401        -1.347485
 O         1.502165        -0.283069        -2.599785
 H        -0.393290        -0.384148        -0.850510
 H        -0.116724        -1.526077         0.418976
 H        -0.670076         0.132899         0.722044
 H         0.905663         1.892618         0.166670
 H         2.563224        -0.669536         2.157334
 H         3.175437        -2.821201         1.043274
 H         2.822388        -2.720709        -1.641631
 H         4.121490        -0.146120        -0.514146
 H         4.270516        -0.656970        -2.283200
 H         1.294491         0.684599        -2.612122
