19
Iteration:  4020
 C        -0.032651         0.125062         0.069079
 C         1.521730        -0.062791        -0.064440
 O         1.944045         1.285999         0.491407
 C         1.978480        -1.066602         0.964348
 C         3.015321        -1.846573         0.462022
 C         3.144035        -1.680200        -0.993915
 C         3.683505        -0.309624        -1.510526
 C         2.243164        -0.553270        -1.378775
 O         1.471060        -0.855504        -2.474835
 H        -0.201202         1.125454        -0.368334
 H        -0.684312        -0.696743        -0.285960
 H        -0.128560         0.330325         1.191664
 H         2.898314         1.248443         0.730436
 H         1.544730        -0.940374         1.941613
 H         3.709523        -2.256220         1.153170
 H         3.260831        -2.446038        -1.696567
 H         4.116137         0.477036        -0.813349
 H         3.995057        -0.182627        -2.530655
 H         1.317175        -0.030954        -2.943754
