19
Iteration:  1261charge 0 multiplicity 1
 C        -0.052191        -0.079690         0.067434
 C         1.556906         0.013708        -0.012180
 O         1.780593         1.344432         0.225147
 C         2.109907        -0.936668         1.100492
 C         2.856958        -1.938747         0.542386
 C         2.952564        -1.825773        -0.971441
 C         3.748083        -0.514784        -1.364814
 C         2.325215        -0.501503        -1.305279
 O         1.655879        -0.528579        -2.561558
 H        -0.334175         0.761475        -0.555304
 H        -0.370523        -0.963452        -0.403975
 H        -0.230281         0.030948         1.181999
 H         2.794880         1.526942         0.220379
 H         1.932937        -0.680082         2.115097
 H         3.473897        -2.675946         0.963525
 H         2.783538        -2.683148        -1.635271
 H         4.509961        -0.110335        -0.763799
 H         3.932044        -0.477857        -2.438234
 H         1.665256         0.423636        -2.766092
