19
Iteration:  2375charge 0 multiplicity 1
 C         0.035652        -0.107545        -0.143081
 C         1.595557        -0.003760         0.125006
 O         2.049457         1.366768         0.292135
 C         2.104778        -1.019721         1.055995
 C         3.010389        -1.873659         0.534298
 C         3.007664        -1.778749        -0.888144
 C         3.653368        -0.419331        -1.529602
 C         2.180782        -0.553939        -1.289948
 O         1.336854        -0.554081        -2.410891
 H        -0.178214         0.877082        -0.609420
 H        -0.200671        -0.795818        -0.918139
 H        -0.625924        -0.232117         0.780996
 H         3.043451         1.348134         0.142500
 H         1.750230        -0.976203         2.113505
 H         3.424026        -2.790794         1.052583
 H         3.104944        -2.687485        -1.517186
 H         4.247736         0.283671        -0.861055
 H         3.883060        -0.437545        -2.577370
 H         1.423764         0.294726        -2.854231
