19
Iteration:  4382charge 0 multiplicity 1
 C        -0.027789        -0.186213         0.078251
 C         1.543490        -0.002814         0.073908
 O         1.882072         1.334487         0.340045
 C         2.197412        -0.901223         0.998229
 C         2.912560        -1.909115         0.391196
 C         3.057495        -1.736308        -1.106438
 C         3.834292        -0.514140        -1.432066
 C         2.166287        -0.513808        -1.300066
 O         1.425829        -0.503821        -2.482641
 H        -0.353825        -1.183112        -0.296577
 H        -0.157956        -0.167850         1.249659
 H        -0.463477         0.768167        -0.345285
 H         2.267838         1.360722         1.270676
 H         1.992652        -0.804012         2.072601
 H         3.523361        -2.536404         1.010556
 H         2.989884        -2.568449        -1.768560
 H         4.378656        -0.016917        -0.640631
 H         4.165738        -0.494216        -2.472406
 H         1.635501         0.322759        -3.024872
