19
Iteration:   436charge 0 multiplicity 1
 C        -0.024649        -0.178868        -0.103794
 C         1.579484        -0.021754         0.028506
 O         1.864138         1.367672         0.175975
 C         2.173524        -0.899360         1.091951
 C         2.881883        -1.867483         0.537730
 C         2.976517        -1.733865        -0.994224
 C         3.764333        -0.548821        -1.279259
 C         2.222192        -0.539435        -1.256951
 O         1.537314        -0.502084        -2.461835
 H        -0.475974        -0.844681         0.690178
 H        -0.344581         0.898412        -0.073831
 H        -0.120414        -0.713465        -1.010969
 H         2.769401         1.495774        -0.197522
 H         1.902138        -0.702844         2.100427
 H         3.104116        -2.800957         0.999754
 H         3.026143        -2.656541        -1.540684
 H         4.432979        -0.199080        -0.479953
 H         3.994456        -0.507892        -2.283437
 H         1.521424         0.467042        -2.699113
