19
Iteration:  4787charge 0 multiplicity 1
 C         0.062533        -0.299834         0.012199
 C         1.590306        -0.062296         0.119387
 O         1.800735         1.321524         0.237178
 C         2.302650        -0.913302         1.085584
 C         2.929796        -1.917641         0.535613
 C         2.899755        -1.834742        -0.981671
 C         3.727228        -0.531270        -1.496030
 C         2.218038        -0.446349        -1.267306
 O         1.525293        -0.239825        -2.537805
 H        -0.119138        -1.361892        -0.213932
 H        -0.464535        -0.168768         1.072634
 H        -0.430149         0.370025        -0.675642
 H         2.757341         1.448908        -0.058070
 H         2.091496        -0.742036         2.199692
 H         3.356655        -2.821776         1.062752
 H         2.650161        -2.627846        -1.673005
 H         4.594868        -0.343439        -0.843950
 H         3.925664        -0.562786        -2.569182
 H         0.773464         0.387014        -2.369223
