19
Iteration:  1930
 C        -0.017741        -0.099825         0.072025
 C         1.600707         0.022608         0.099433
 O         1.906673         1.442643         0.333418
 C         2.195921        -0.882390         1.033711
 C         2.825779        -1.965051         0.488625
 C         3.013360        -1.848145        -1.010915
 C         3.705091        -0.537700        -1.481006
 C         2.232963        -0.542419        -1.312305
 O         1.537002        -0.567850        -2.505226
 H        -0.421090         0.473715        -0.827249
 H        -0.334881        -1.149734         0.034921
 H        -0.317326         0.353049         1.051158
 H         2.684208         1.713468        -0.235078
 H         1.850625        -0.893352         2.045000
 H         3.283822        -2.756638         1.105552
 H         2.959634        -2.652780        -1.732871
 H         4.160776         0.155367        -0.821962
 H         4.040911        -0.585247        -2.560124
 H         1.437782         0.386525        -2.763470
