19
Iteration:   107
 C         0.015228        -0.109600        -0.028402
 C         1.592721        -0.011976        -0.071839
 O         1.964288         1.343455         0.131498
 C         2.054175        -0.941136         1.037286
 C         2.869009        -1.947737         0.568390
 C         3.031224        -1.833950        -0.920403
 C         3.727426        -0.457320        -1.326498
 C         2.262980        -0.604643        -1.326124
 O         1.460210        -0.447857        -2.458639
 H        -0.315155        -0.223480         0.987749
 H        -0.419508         0.762803        -0.517181
 H        -0.194222        -1.134005        -0.545936
 H         2.225269         1.560573         1.007658
 H         2.126676        -0.606606         2.073034
 H         3.422317        -2.585138         1.218427
 H         3.132299        -2.605096        -1.654330
 H         4.260185         0.241740        -0.624481
 H         4.160180        -0.558243        -2.309680
 H         1.290358         0.498361        -2.384262
