19
Iteration:   497charge 0 multiplicity 1
 C        -0.054571        -0.109478         0.013542
 C         1.557456         0.009118         0.073408
 O         1.824950         1.444402         0.169639
 C         2.149567        -0.956087         1.074696
 C         2.882099        -1.920339         0.580356
 C         3.011349        -1.818558        -0.886959
 C         3.754205        -0.538161        -1.437453
 C         2.250510        -0.580455        -1.318360
 O         1.626709        -0.369328        -2.527639
 H        -0.566424        -0.617866         0.845356
 H        -0.652165         0.784595        -0.149559
 H        -0.397065        -0.602391        -0.905784
 H         2.860937         1.352430         0.093999
 H         1.779240        -0.953804         2.161931
 H         3.282308        -2.790576         1.138182
 H         2.901832        -2.711747        -1.480051
 H         4.521612        -0.195441        -0.659786
 H         4.201460        -0.438746        -2.442908
 H         1.351134        -1.233890        -2.848365
