19
Iteration:  2651charge 0 multiplicity 1
 C        -0.006562        -0.035151        -0.046937
 C         1.584168         0.004135         0.098037
 O         1.891895         1.333564         0.453537
 C         2.218174        -0.912393         1.109424
 C         2.958721        -1.879065         0.528415
 C         2.932112        -1.748707        -0.912062
 C         3.672476        -0.564276        -1.612775
 C         2.141031        -0.485143        -1.317960
 O         1.534125        -0.618578        -2.608572
 H        -0.419623         0.160910        -1.096870
 H        -0.283504        -1.125053         0.230249
 H        -0.283645         0.658548         0.736245
 H         2.758210         1.523243         0.937509
 H         1.946764        -0.915647         2.193656
 H         3.728107        -2.454910         1.118459
 H         2.799937        -2.544871        -1.670415
 H         4.443973         0.086893        -1.055098
 H         3.861007        -0.691242        -2.629431
 H         1.740311         0.114807        -3.217226
