19
Iteration:  1198
 C         0.057209        -0.062395        -0.138806
 C         1.552902        -0.065654         0.009300
 O         1.948208         1.273695         0.208830
 C         2.097798        -0.975564         1.099997
 C         2.829910        -1.992941         0.529601
 C         3.100009        -1.707966        -0.986558
 C         3.672907        -0.407841        -1.284731
 C         2.230155        -0.527096        -1.279397
 O         1.503473        -0.514623        -2.445639
 H        -0.256428         0.439906        -1.076709
 H        -0.482770        -0.970904        -0.000827
 H        -0.528987         0.513604         0.652016
 H         2.831952         1.416957        -0.262740
 H         1.847246        -0.671720         2.093548
 H         3.396864        -2.703685         1.043240
 H         3.169590        -2.463899        -1.763220
 H         4.072551         0.087193        -0.436057
 H         4.321421        -0.461248        -2.177671
 H         1.026950         0.342982        -2.456971
