19
Iteration:  2770charge 0 multiplicity 1
 C         0.081480        -0.135643         0.195827
 C         1.544704        -0.072885         0.006067
 O         1.746317         1.346600         0.203684
 C         2.247322        -0.875275         0.989198
 C         2.903083        -1.893144         0.488701
 C         2.908799        -1.799764        -0.989699
 C         3.809313        -0.593473        -1.397351
 C         2.212824        -0.573618        -1.326431
 O         1.500660        -0.403890        -2.534141
 H        -0.218371         0.964893         0.077141
 H        -0.380040        -0.772305        -0.621939
 H        -0.056937        -0.490277         1.201463
 H         2.655556         1.517398         0.237995
 H         2.005434        -0.676569         2.063191
 H         3.418913        -2.511367         1.215127
 H         3.023460        -2.680275        -1.521931
 H         4.369717        -0.171148        -0.570700
 H         4.286503        -0.687240        -2.421585
 H         1.557864         0.556130        -2.759083
