19
Iteration:   615
 C        -0.013969         0.037514         0.013150
 C         1.511564        -0.044053        -0.036227
 O         1.976022         1.300123         0.177938
 C         2.060551        -0.993195         1.010905
 C         2.922686        -1.938648         0.602645
 C         3.063094        -1.794408        -0.902099
 C         3.670959        -0.428973        -1.271589
 C         2.227135        -0.625169        -1.322747
 O         1.603765        -0.466931        -2.648052
 H        -0.184824         0.573907         0.908280
 H        -0.380944         0.494821        -0.894828
 H        -0.274395        -1.047407         0.042868
 H         1.601719         1.628224         1.016820
 H         1.989794        -0.836013         2.076565
 H         3.454068        -2.555957         1.290948
 H         3.435724        -2.537284        -1.552032
 H         3.947215         0.369457        -0.482180
 H         4.285776        -0.339088        -2.137303
 H         0.668915        -0.832303        -2.674627
