19
Iteration:  4841charge 0 multiplicity 1
 C         0.036237        -0.026113         0.059665
 C         1.588623        -0.131023         0.035465
 O         1.824724         1.309435         0.277181
 C         2.249997        -0.964410         1.087449
 C         2.939202        -1.980820         0.433477
 C         3.070455        -1.701717        -0.976013
 C         3.725630        -0.425966        -1.428437
 C         2.205917        -0.567296        -1.365746
 O         1.375259        -0.476514        -2.437950
 H        -0.549168        -0.399786        -0.814447
 H        -0.337272        -0.679128         1.009458
 H        -0.328187         0.980853         0.267108
 H         2.822670         1.372392         0.357479
 H         1.770840        -0.865346         2.101811
 H         3.340356        -2.988443         0.761694
 H         3.317757        -2.520082        -1.681861
 H         4.072139         0.414795        -0.838313
 H         4.240132        -0.397421        -2.378870
 H         1.765471         0.128906        -3.142610
