19
Iteration:   849
 C        -0.012008        -0.018973        -0.221399
 C         1.506880        -0.011873        -0.087472
 O         1.900690         1.313038         0.308950
 C         2.116887        -0.886355         1.102243
 C         2.893656        -1.840318         0.654814
 C         3.017992        -1.850174        -0.865922
 C         3.746003        -0.649717        -1.419346
 C         2.258204        -0.568676        -1.277369
 O         1.558540        -0.369393        -2.461337
 H        -0.363886        -0.365360         0.738107
 H        -0.471937         0.904376        -0.462985
 H        -0.456897        -0.732474        -0.980863
 H         2.696282         1.559073        -0.124239
 H         2.001873        -0.544845         2.122931
 H         3.523052        -2.542712         1.169468
 H         3.113268        -2.793052        -1.400035
 H         4.364758         0.002105        -0.813360
 H         3.935039        -0.671947        -2.526850
 H         1.095200        -1.183510        -2.686699
