19
Iteration:  2399
 C         0.000948         0.019212         0.204467
 C         1.541271        -0.036372        -0.029874
 O         1.916443         1.311932         0.198968
 C         2.146359        -0.962712         1.007257
 C         2.863836        -1.950952         0.474493
 C         3.093019        -1.763037        -0.945950
 C         3.753741        -0.435473        -1.400060
 C         2.169688        -0.596567        -1.372198
 O         1.462589        -0.563720        -2.489871
 H        -0.369204         1.000260         0.049406
 H        -0.605512        -0.665622        -0.459200
 H        -0.224408        -0.247002         1.252134
 H         2.926987         1.394980         0.073034
 H         1.790079        -0.834258         2.120172
 H         3.593518        -2.467754         1.183902
 H         3.151259        -2.531023        -1.657541
 H         4.402359         0.077411        -0.588708
 H         4.139314        -0.495016        -2.425058
 H         1.413872         0.308048        -2.940570
