19
Iteration:   112
 C        -0.007552        -0.120473        -0.030617
 C         1.560943        -0.011554        -0.051771
 O         1.949468         1.356832         0.135701
 C         2.097847        -0.921054         1.068608
 C         2.875054        -1.968074         0.559931
 C         3.007974        -1.820151        -0.886805
 C         3.720257        -0.472611        -1.360685
 C         2.253615        -0.559447        -1.313887
 O         1.513672        -0.466586        -2.509152
 H        -0.348864        -0.322529         1.024257
 H        -0.536653         0.802744        -0.354280
 H        -0.274918        -0.982408        -0.544516
 H         2.488533         1.546160         0.985368
 H         1.984874        -0.756951         2.162366
 H         3.490470        -2.709474         1.144160
 H         3.083900        -2.623311        -1.655475
 H         4.215396         0.267922        -0.770361
 H         4.280100        -0.648250        -2.300635
 H         1.223919         0.468769        -2.328747
