19
Iteration:  1870
 C         0.030164        -0.068481         0.014941
 C         1.550198         0.008122        -0.001817
 O         1.869303         1.396976         0.235421
 C         2.169207        -0.939429         1.006992
 C         2.955198        -1.890350         0.548665
 C         3.036958        -1.887126        -0.967744
 C         3.737501        -0.613906        -1.446791
 C         2.219924        -0.633282        -1.274335
 O         1.411097        -0.398381        -2.476945
 H        -0.496706         0.784247        -0.370963
 H        -0.338655        -1.002438        -0.457783
 H        -0.299110        -0.241931         1.072432
 H         2.605443         1.508541         0.788485
 H         2.190033        -0.428287         2.006351
 H         3.256182        -2.690355         1.190485
 H         3.236657        -2.751661        -1.584119
 H         4.503163        -0.024423        -0.832751
 H         3.955399        -0.510640        -2.457191
 H         1.618935         0.480134        -2.837377
