19
Iteration:  4029
 C         0.028392         0.199002         0.065133
 C         1.484474        -0.077623        -0.017818
 O         1.931978         1.274300         0.534777
 C         1.992948        -1.064644         0.926556
 C         2.965072        -1.817214         0.498539
 C         3.239067        -1.680807        -1.020366
 C         3.684904        -0.259978        -1.516443
 C         2.176778        -0.619668        -1.345542
 O         1.471236        -0.850180        -2.518260
 H        -0.424284         0.926606        -0.574642
 H        -0.621571        -0.768184        -0.047739
 H        -0.185149         0.487859         1.100258
 H         2.905658         1.289403         0.438755
 H         1.765780        -0.997987         2.000088
 H         3.654599        -2.537151         0.963299
 H         3.259337        -2.574720        -1.635222
 H         3.991379         0.459398        -0.821105
 H         4.096776        -0.337106        -2.468423
 H         1.358842        -0.089300        -3.079796
