19
Iteration:  2115
 C         0.027869        -0.142688         0.121427
 C         1.549817        -0.085376        -0.053241
 O         1.989591         1.300351         0.006441
 C         2.117367        -0.943608         0.980257
 C         2.845254        -2.024637         0.551486
 C         3.121410        -1.814954        -0.912338
 C         3.752908        -0.374134        -1.325578
 C         2.239787        -0.539530        -1.295251
 O         1.373694        -0.378232        -2.407718
 H        -0.399998         0.619636        -0.616615
 H        -0.486751        -1.035330        -0.107325
 H        -0.319619         0.257909         1.129524
 H         3.024388         1.305533        -0.071249
 H         1.865482        -0.664955         2.059043
 H         3.471173        -2.683091         1.182780
 H         3.073574        -2.596827        -1.676536
 H         4.371232         0.163406        -0.504982
 H         4.179085        -0.512800        -2.313317
 H         0.670228         0.297670        -2.254466
