19
Iteration:  3200charge 0 multiplicity 1
 C         0.027300        -0.098046         0.140620
 C         1.544534        -0.021941        -0.015374
 O         2.017889         1.357320         0.211653
 C         2.146890        -0.949553         1.037428
 C         2.874952        -1.916208         0.507089
 C         3.134047        -1.747380        -1.010637
 C         3.666162        -0.397304        -1.334679
 C         2.213855        -0.579427        -1.306698
 O         1.484142        -0.607436        -2.576950
 H        -0.457459         0.680291        -0.326848
 H        -0.435166        -1.102477        -0.188300
 H        -0.152757         0.013507         1.217558
 H         1.179426         1.883306         0.085003
 H         1.719964        -0.748138         2.015208
 H         3.343446        -2.757197         1.115702
 H         3.300437        -2.653194        -1.642767
 H         4.219987         0.072124        -0.465952
 H         3.975760        -0.354106        -2.370644
 H         1.108920         0.288217        -2.599174
