19
Iteration:  2695charge 0 multiplicity 1
 C         0.081935        -0.162908         0.047997
 C         1.601873         0.019503        -0.054440
 O         1.805260         1.389409         0.278874
 C         2.281111        -0.883850         1.055264
 C         2.810859        -2.018066         0.492655
 C         2.955170        -1.748960        -0.960544
 C         3.846552        -0.541457        -1.422906
 C         2.285879        -0.477429        -1.353749
 O         1.340675        -0.516031        -2.414680
 H        -0.238452         0.379131        -0.928359
 H        -0.180691        -1.227306        -0.183005
 H        -0.303442         0.398626         0.886554
 H         2.827458         1.482531         0.286222
 H         2.004298        -0.645122         2.120322
 H         3.464547        -2.796770         0.933859
 H         2.913519        -2.506348        -1.710424
 H         4.443430        -0.083095        -0.618010
 H         4.310492        -0.809049        -2.353562
 H         1.167623         0.400507        -2.692874
