19
Iteration:  4144charge 0 multiplicity 1
 C         0.015698        -0.479206         0.168787
 C         1.607710         0.055456         0.029035
 O         1.680800         1.469961         0.237385
 C         2.352855        -0.828326         1.054941
 C         2.853704        -1.950785         0.424961
 C         2.808460        -1.820276        -1.056099
 C         3.804139        -0.621634        -1.420099
 C         2.182736        -0.503656        -1.272780
 O         1.642577        -0.293596        -2.509145
 H        -0.113496        -1.347181        -0.483691
 H        -0.159955        -0.633060         1.258315
 H        -0.589702         0.319152        -0.214397
 H         2.650333         1.779767         0.296029
 H         2.327579        -0.431468         2.038428
 H         3.243420        -2.863248         0.944181
 H         2.568937        -2.675508        -1.708150
 H         4.439242        -0.432013        -0.539631
 H         4.120216        -0.545031        -2.477823
 H         1.942572         0.607266        -2.697665
