19
Iteration:  1812
 C         0.030044        -0.139142         0.094291
 C         1.525489         0.027077        -0.077390
 O         1.978312         1.413503         0.283337
 C         2.281485        -0.894467         0.971306
 C         2.779655        -1.990085         0.499357
 C         3.004284        -1.819886        -0.940807
 C         3.736055        -0.459771        -1.294868
 C         2.185640        -0.622988        -1.318177
 O         1.423946        -0.461467        -2.480146
 H        -0.620027         0.776681         0.001508
 H        -0.344716        -0.868140        -0.594766
 H        -0.037128        -0.412414         1.173873
 H         2.391259         1.801095        -0.582793
 H         1.916446        -0.741420         1.968085
 H         3.487111        -2.752145         0.965272
 H         3.185708        -2.572744        -1.745112
 H         4.004212        -0.064499        -0.366081
 H         4.213043        -0.438354        -2.382782
 H         1.965986        -0.357608        -3.270530
