19
Iteration:  3610charge 0 multiplicity 1
 C         0.101853        -0.353388         0.072860
 C         1.611389        -0.059992         0.051943
 O         1.794558         1.458415        -0.003623
 C         2.319050        -0.895712         1.083288
 C         2.843243        -1.996202         0.545533
 C         2.973530        -1.831843        -0.940290
 C         3.707533        -0.546942        -1.286325
 C         2.203785        -0.551961        -1.305188
 O         1.465384        -0.293323        -2.527241
 H        -0.467761         0.447546        -0.641602
 H        -0.183395        -1.288243        -0.347549
 H        -0.474555        -0.183187         1.077115
 H         2.478314         1.810985         0.693737
 H         2.143518        -0.663943         2.157882
 H         3.226970        -2.803272         1.102505
 H         3.184819        -2.590931        -1.645433
 H         4.424681        -0.057795        -0.557244
 H         4.089941        -0.371606        -2.271139
 H         1.403903         0.702059        -2.532140
