19
Iteration:  4008charge 0 multiplicity 1
 C        -0.025718         0.086301         0.034166
 C         1.501572        -0.022943        -0.015639
 O         1.978855         1.253687         0.369907
 C         2.058862        -1.083111         0.968822
 C         3.028548        -1.825377         0.534542
 C         3.103454        -1.610867        -0.963772
 C         3.734706        -0.326693        -1.510141
 C         2.196923        -0.479307        -1.323813
 O         1.423511        -0.818907        -2.486455
 H        -0.379126         1.062331        -0.287035
 H        -0.540592        -0.600461        -0.736625
 H        -0.427470        -0.151957         1.053134
 H         2.691419         1.037006         1.073848
 H         1.780084        -1.111216         2.030136
 H         3.661200        -2.568240         1.061269
 H         3.162218        -2.496130        -1.578030
 H         4.432306         0.137299        -0.820403
 H         4.058080        -0.351957        -2.526494
 H         1.058415         0.030671        -2.880145
