19
Iteration:  2345
 C         0.074576        -0.021947        -0.198564
 C         1.596551        -0.008273         0.061917
 O         1.930056         1.291657         0.475529
 C         2.150804        -0.959215         1.075842
 C         2.991491        -1.843640         0.496897
 C         3.013701        -1.788183        -0.956211
 C         3.722565        -0.505875        -1.564141
 C         2.223731        -0.522582        -1.310985
 O         1.312662        -0.607438        -2.432462
 H        -0.178544         0.502910        -1.067699
 H        -0.401266        -1.027413        -0.291473
 H        -0.429443         0.592180         0.566673
 H         2.882593         1.265682         0.782653
 H         2.271816        -0.425157         2.111526
 H         3.517344        -2.673550         1.077591
 H         2.873614        -2.659480        -1.565299
 H         4.336431         0.157615        -0.842696
 H         3.888460        -0.352320        -2.610475
 H         1.183499         0.267512        -2.881858
