19
Iteration:   344charge 0 multiplicity 1
 C        -0.030489        -0.075591        -0.194185
 C         1.519753        -0.070053         0.063223
 O         1.916779         1.288454         0.154928
 C         2.156222        -0.963067         1.140141
 C         2.979790        -1.897415         0.572241
 C         3.095028        -1.841389        -0.943198
 C         3.629942        -0.527150        -1.331009
 C         2.156568        -0.538325        -1.278647
 O         1.508828        -0.330425        -2.448778
 H        -0.676823         0.728056         0.095503
 H        -0.289193        -0.059761        -1.248227
 H        -0.534659        -0.987580         0.327692
 H         2.699508         1.499872         0.797883
 H         1.896363        -1.090495         2.170599
 H         3.660054        -2.496193         1.161855
 H         3.115988        -2.713645        -1.649714
 H         4.131370         0.105995        -0.572297
 H         3.999289        -0.276525        -2.413349
 H         2.216437        -0.270833        -3.093174
