19
Iteration:   124
 C        -0.038397        -0.142008         0.000772
 C         1.521253        -0.020635         0.049838
 O         1.909150         1.413116         0.177625
 C         2.210414        -0.939710         1.129593
 C         2.865225        -1.933648         0.569298
 C         2.980231        -1.732704        -0.897613
 C         3.740833        -0.534587        -1.412859
 C         2.209069        -0.525490        -1.305192
 O         1.611922        -0.488193        -2.599240
 H        -0.364877        -0.461775         1.019857
 H        -0.471066         0.866680        -0.206124
 H        -0.427380        -0.777170        -0.749412
 H         2.788881         1.259115         0.540500
 H         1.692298        -0.948797         2.108875
 H         3.276707        -2.837560         1.076577
 H         3.047072        -2.691898        -1.439701
 H         4.314232        -0.036273        -0.672459
 H         4.086194        -0.599512        -2.502880
 H         0.977622         0.188146        -2.824822
