19
Iteration:  4305
 C        -0.064003         0.110181        -0.033619
 C         1.529949        -0.068797        -0.044588
 O         2.024772         1.224557         0.432963
 C         2.009384        -1.111973         0.953693
 C         3.025917        -1.958639         0.404735
 C         3.209192        -1.576390        -0.971985
 C         3.741025        -0.256974        -1.416358
 C         2.202882        -0.527075        -1.295495
 O         1.335904        -0.723751        -2.416419
 H        -0.492681        -0.982625        -0.153724
 H        -0.356721         0.685228         0.939300
 H        -0.539164         0.695138        -0.952743
 H         2.975565         1.260878         0.057682
 H         1.713468        -1.157195         2.001143
 H         3.679806        -2.596836         1.015460
 H         3.241718        -2.364235        -1.659403
 H         4.391560         0.191393        -0.601182
 H         4.103858        -0.317622        -2.463352
 H         0.773597         0.046491        -2.383488
