19
Iteration:  1566
 C         0.049944        -0.125910        -0.045923
 C         1.568490        -0.009798         0.031571
 O         1.945430         1.428877         0.196091
 C         2.178384        -0.976628         1.107364
 C         2.828618        -2.009107         0.466779
 C         3.046158        -1.851206        -1.024066
 C         3.735898        -0.533864        -1.367465
 C         2.303379        -0.493935        -1.320446
 O         1.449621        -0.402982        -2.323937
 H        -0.279649         0.226353        -1.007198
 H        -0.314502        -1.073409         0.137550
 H        -0.410367         0.507698         0.748216
 H         1.078138         1.828797         0.035126
 H         1.933887        -0.851071         2.143529
 H         2.923831        -2.974073         1.003278
 H         2.980579        -2.591808        -1.822877
 H         4.194923         0.094545        -0.662462
 H         4.236604        -0.466195        -2.324505
 H         1.928365        -0.297015        -3.155072
