19
Iteration:  2101charge 0 multiplicity 1
 C        -0.017828        -0.041013         0.106784
 C         1.546502        -0.038808        -0.065040
 O         1.974448         1.331334         0.138747
 C         2.180808        -0.932637         1.034764
 C         2.866251        -1.932167         0.510685
 C         3.069289        -1.798936        -0.992789
 C         3.704404        -0.492272        -1.318563
 C         2.188201        -0.634082        -1.345285
 O         1.462231        -0.429002        -2.503430
 H        -0.681285         0.649908        -0.453307
 H        -0.288178        -1.096956        -0.033183
 H        -0.117148         0.063695         1.144264
 H         2.889702         1.265929         0.226158
 H         1.935090        -0.717656         2.138072
 H         3.574836        -2.583551         1.153896
 H         3.392012        -2.677348        -1.524001
 H         4.145805         0.094193        -0.422062
 H         4.139216        -0.160888        -2.243747
 H         0.685337        -0.027612        -2.117067
