19
Iteration:  4153charge 0 multiplicity 1
 C         0.037199        -0.470973         0.158380
 C         1.582559         0.030634         0.027998
 O         1.679015         1.486577         0.235717
 C         2.372274        -0.850040         1.025323
 C         2.809985        -1.967479         0.492443
 C         2.773430        -1.807043        -1.060798
 C         3.824642        -0.697901        -1.375367
 C         2.275255        -0.450342        -1.278664
 O         1.589043        -0.230452        -2.530012
 H         0.117968        -1.602825        -0.061627
 H        -0.316359        -0.600774         1.140703
 H        -0.899999        -0.066804        -0.349729
 H         2.631095         1.783377         0.071500
 H         2.550144        -0.482868         2.046500
 H         3.427665        -2.787279         0.944533
 H         2.669852        -2.687884        -1.758052
 H         4.570648        -0.270938        -0.611440
 H         4.163907        -0.634741        -2.473577
 H         1.796025         0.634507        -2.897247
