19
Iteration:  3079
 C         0.059180        -0.123740        -0.042719
 C         1.563833         0.006332        -0.029982
 O         1.947011         1.347051         0.388131
 C         2.200719        -0.940038         1.062151
 C         2.949268        -1.908908         0.528680
 C         3.086210        -1.775341        -0.987622
 C         3.743489        -0.484863        -1.428415
 C         2.193399        -0.569672        -1.265064
 O         1.371454        -0.559516        -2.493172
 H        -0.350575         0.682638        -0.583769
 H        -0.372375        -1.066359        -0.492401
 H        -0.416886        -0.096630         0.993752
 H         1.431288         1.872789        -0.282755
 H         2.078235        -0.434995         2.032468
 H         3.614809        -2.600726         1.027719
 H         3.095636        -2.604808        -1.617071
 H         4.134904         0.205850        -0.720617
 H         3.937049        -0.508883        -2.509530
 H         1.319813         0.305019        -2.985685
