19
Iteration:  3580
 C         0.020696        -0.340664         0.132370
 C         1.576608        -0.048167         0.009260
 O         1.768391         1.406648         0.215287
 C         2.211866        -0.817547         1.012787
 C         2.921551        -1.871317         0.531792
 C         2.853517        -1.853858        -0.978024
 C         3.754788        -0.662974        -1.449290
 C         2.301768        -0.494749        -1.293123
 O         1.575444        -0.307620        -2.523071
 H        -0.485161         0.082893        -0.757269
 H        -0.090695        -1.401474         0.103324
 H        -0.335665         0.304196         0.952033
 H         1.587277         1.610926         1.089985
 H         2.266002        -0.508790         2.040795
 H         3.687132        -2.446525         1.126032
 H         2.942771        -2.707877        -1.576889
 H         4.383091        -0.205150        -0.672844
 H         3.988811        -0.658567        -2.542779
 H         1.976226         0.231770        -3.216157
