19
Iteration:  3555charge 0 multiplicity 1
 C         0.012951        -0.261943        -0.033939
 C         1.551627         0.044819         0.089815
 O         1.784149         1.400641         0.334471
 C         2.306802        -0.893231         1.097597
 C         3.006586        -1.865749         0.551064
 C         2.900403        -1.778697        -0.935091
 C         3.778248        -0.700040        -1.591681
 C         2.247187        -0.479514        -1.273873
 O         1.534291        -0.398982        -2.527234
 H        -0.570928        -0.004571        -1.055448
 H        -0.009170        -1.297712         0.070273
 H        -0.516368         0.381387         0.749846
 H         1.013356         1.930661         0.619675
 H         2.103009        -0.993378         2.195076
 H         3.316493        -2.728696         1.036929
 H         2.698329        -2.681901        -1.503535
 H         4.310513        -0.018216        -0.873522
 H         3.974069        -0.739165        -2.631744
 H         2.061164         0.152524        -3.149759
