19
Iteration:  3329
 C        -0.038682        -0.166527         0.273959
 C         1.435867         0.060616         0.040115
 O         1.839055         1.371539         0.011799
 C         2.316945        -0.976291         1.020633
 C         2.990964        -2.018165         0.488937
 C         2.963676        -1.776595        -1.034047
 C         3.654337        -0.479748        -1.310169
 C         2.202832        -0.571438        -1.254978
 O         1.656161        -0.439823        -2.580021
 H        -0.648463         0.633835        -0.082463
 H        -0.406343        -1.163352        -0.178483
 H        -0.286168        -0.202928         1.392015
 H         1.470353         1.888488         0.691598
 H         2.250141        -0.697585         2.047507
 H         3.576811        -2.812950         1.000234
 H         2.914113        -2.737764        -1.704018
 H         4.324427        -0.017384        -0.581483
 H         4.093837        -0.385496        -2.382127
 H         1.596790         0.532337        -2.604961
