19
Iteration:  4379charge 0 multiplicity 1
 C        -0.050123        -0.176733         0.087055
 C         1.539424         0.001074         0.086897
 O         1.904463         1.334817         0.360557
 C         2.202691        -0.928117         0.997994
 C         2.905315        -1.870284         0.405634
 C         3.057679        -1.742169        -1.106444
 C         3.841440        -0.490709        -1.453613
 C         2.167929        -0.531572        -1.317841
 O         1.434167        -0.521793        -2.479357
 H        -0.423342        -1.126285        -0.423645
 H        -0.251071        -0.185276         1.063657
 H        -0.552546         0.748697        -0.331207
 H         2.250970         1.357604         1.206249
 H         2.022456        -0.788083         2.032196
 H         3.559515        -2.513093         0.943480
 H         2.951669        -2.579641        -1.738980
 H         4.451287        -0.099346        -0.563913
 H         4.134737        -0.476969        -2.517697
 H         1.577997         0.323888        -2.952975
