19
Iteration:  1581charge 0 multiplicity 1
 C         0.065631        -0.136844        -0.066027
 C         1.655565         0.038048        -0.027769
 O         1.907627         1.432575         0.356341
 C         2.148483        -0.944979         0.942874
 C         2.814426        -1.999394         0.514708
 C         3.003766        -1.818023        -0.924435
 C         3.829290        -0.542542        -1.425710
 C         2.282819        -0.560035        -1.259565
 O         1.362427        -0.402070        -2.423212
 H        -0.334416         0.264922        -0.993394
 H        -0.164592        -1.244263        -0.079817
 H        -0.308489         0.439350         0.732700
 H         1.078054         2.042932         0.357898
 H         2.029195        -0.712172         2.012332
 H         3.155824        -2.861315         1.075765
 H         3.170911        -2.725816        -1.510755
 H         4.504378        -0.146618        -0.639358
 H         4.203511        -0.667389        -2.469270
 H         1.859689        -0.496073        -3.241412
