19
Iteration:  2204
 C         0.072237        -0.200769        -0.019285
 C         1.609184         0.091704        -0.019073
 O         1.737063         1.518640         0.404118
 C         2.229369        -0.877620         1.112370
 C         2.987049        -1.862951         0.556624
 C         2.886303        -1.829295        -0.901654
 C         3.707597        -0.789344        -1.583713
 C         2.234648        -0.530226        -1.320529
 O         1.506181        -0.433434        -2.575368
 H        -0.497958         0.323705        -0.767905
 H         0.119371        -1.287561        -0.329647
 H        -0.367688         0.001590         1.016829
 H         2.494245         1.447393         1.110804
 H         2.130806        -0.618358         2.164484
 H         3.493342        -2.750528         0.941605
 H         2.743719        -2.872621        -1.350916
 H         4.515786        -0.275820        -1.099457
 H         3.946831        -0.930122        -2.715189
 H         1.918131         0.401463        -2.911112
