19
Iteration:  4937
 C        -0.069733         0.054853         0.053642
 C         1.456394        -0.089200         0.077982
 O         1.920371         1.338277         0.267098
 C         2.118376        -1.064169         1.053721
 C         3.029065        -1.881256         0.470271
 C         3.201507        -1.756154        -1.029619
 C         3.708350        -0.425598        -1.519580
 C         2.148252        -0.587340        -1.241799
 O         1.459248        -0.550061        -2.453308
 H        -0.344041         0.259885        -0.963217
 H        -0.530327        -0.951089         0.211737
 H        -0.501636         0.815330         0.634501
 H         2.967213         1.327030         0.307424
 H         2.067483        -1.029028         2.147893
 H         3.678180        -2.579996         1.030847
 H         3.458936        -2.576828        -1.737872
 H         4.403041         0.002562        -0.857992
 H         3.939052        -0.260615        -2.541643
 H         0.792788         0.171413        -2.409885
