19
Iteration:   800charge 0 multiplicity 1
 C         0.013994        -0.091756        -0.003620
 C         1.578099         0.018601        -0.011968
 O         1.810013         1.393202         0.144406
 C         2.122172        -0.930584         1.049665
 C         2.850909        -2.020345         0.595133
 C         2.917042        -1.786771        -0.908204
 C         3.791981        -0.544865        -1.309047
 C         2.257982        -0.500763        -1.277574
 O         1.626963        -0.389733        -2.530437
 H        -0.398575         0.629101         0.744745
 H        -0.456747         0.125129        -1.012009
 H        -0.334134        -1.130365         0.132598
 H         2.769447         1.601443        -0.136471
 H         2.034786        -0.675942         2.118299
 H         3.402185        -2.752469         1.248609
 H         2.756357        -2.653321        -1.612779
 H         4.470289        -0.160914        -0.563655
 H         4.170034        -0.640442        -2.366236
 H         1.321973        -1.297925        -2.774045
