19
Iteration:   598charge 0 multiplicity 1
 C        -0.145096         0.031551         0.025870
 C         1.426759        -0.108651        -0.056790
 O         2.058232         1.233833         0.193383
 C         2.040337        -1.000089         1.037653
 C         2.940273        -1.848896         0.530200
 C         3.171145        -1.779273        -0.906315
 C         3.772272        -0.446404        -1.299790
 C         2.173991        -0.630406        -1.321203
 O         1.636009        -0.436298        -2.576706
 H        -0.593828         0.878604         0.678606
 H        -0.595315         0.355950        -0.954736
 H        -0.763253        -0.752740         0.408989
 H         1.375536         1.769792         0.556650
 H         1.815688        -0.760266         2.072387
 H         3.733979        -2.385441         1.084359
 H         3.265912        -2.788395        -1.422483
 H         4.306855         0.077959        -0.555105
 H         4.236515        -0.466520        -2.346698
 H         0.687043        -0.501355        -2.299244
