19
Iteration:  4345charge 0 multiplicity 1
 C         0.099082        -0.026549        -0.112723
 C         1.600681        -0.056978         0.031804
 O         1.960204         1.250533         0.418789
 C         2.118265        -1.024987         1.071360
 C         3.053703        -1.922883         0.493749
 C         3.104297        -1.642765        -0.958854
 C         3.562502        -0.392057        -1.510785
 C         2.118181        -0.558010        -1.277434
 O         1.432926        -0.559664        -2.528673
 H        -0.461661        -0.612676        -0.887963
 H        -0.396122        -0.296076         0.712816
 H        -0.286871         1.004721        -0.275968
 H         2.565481         1.347987         1.107581
 H         1.835277        -1.058424         2.137502
 H         3.775717        -2.515049         1.146206
 H         3.061013        -2.552956        -1.630725
 H         4.352477         0.264457        -1.020161
 H         3.871704        -0.391277        -2.579947
 H         0.630634         0.048027        -2.579797
