19
Iteration:   179charge 0 multiplicity 1
 C         0.015940        -0.106847        -0.086930
 C         1.564244         0.026468         0.050320
 O         1.945600         1.365140         0.274876
 C         2.180629        -0.853534         1.068579
 C         2.851010        -1.885631         0.530373
 C         3.032932        -1.837323        -0.944493
 C         3.838951        -0.578102        -1.308582
 C         2.260009        -0.572007        -1.299553
 O         1.408006        -0.504486        -2.576123
 H        -0.359583        -0.736528         0.719896
 H        -0.473806         0.873563        -0.067598
 H        -0.061455        -0.739220        -0.956810
 H         1.129806         1.713292         0.552549
 H         2.005786        -0.511172         2.109040
 H         3.045322        -2.796702         1.080229
 H         2.928792        -2.662422        -1.622036
 H         4.346582        -0.067979        -0.479121
 H         4.244954        -0.608432        -2.330189
 H         1.731912         0.256881        -3.087137
