19
Iteration:  2312charge 0 multiplicity 1
 C        -0.043304         0.050927         0.209456
 C         1.526558         0.026010         0.012345
 O         1.848408         1.411976         0.348885
 C         2.114293        -1.064383         1.030100
 C         2.971206        -1.915805         0.477642
 C         3.046600        -1.760618        -1.025135
 C         3.758094        -0.528698        -1.490920
 C         2.227390        -0.543707        -1.313401
 O         1.512918        -0.644093        -2.631561
 H        -0.633223         0.500523        -0.551927
 H        -0.417825        -0.921618         0.563899
 H        -0.235393         0.695414         1.087013
 H         2.829982         1.518943         0.621577
 H         2.114398        -0.894598         2.174521
 H         3.500102        -2.752041         1.030828
 H         2.940765        -2.712886        -1.543188
 H         4.418666         0.105730        -0.806378
 H         4.047653        -0.375061        -2.522035
 H         1.553174         0.186986        -3.123960
