19
Iteration:  4955
 C        -0.007576        -0.082238         0.077845
 C         1.564605        -0.042377         0.005866
 O         1.894922         1.278796         0.238388
 C         2.175664        -0.997138         1.027414
 C         2.943341        -1.887189         0.461173
 C         2.998293        -1.728740        -0.993054
 C         3.766493        -0.360093        -1.401425
 C         2.255527        -0.548248        -1.309902
 O         1.425380        -0.586140        -2.454537
 H        -0.510433         0.543196        -0.671397
 H        -0.400127        -1.040382         0.181620
 H        -0.124110         0.432299         1.079627
 H         2.887977         1.381639        -0.067974
 H         1.826887        -0.839402         2.086529
 H         3.547857        -2.648057         0.938959
 H         2.869975        -2.563086        -1.642512
 H         4.339607         0.234724        -0.615336
 H         4.111379        -0.365286        -2.458714
 H         1.082372         0.334442        -2.573114
