19
Iteration:  3092charge 0 multiplicity 1
 C        -0.056282        -0.091009        -0.069397
 C         1.506302        -0.066842         0.010615
 O         1.983231         1.364650         0.459663
 C         2.161266        -0.962406         1.030912
 C         3.076367        -1.817900         0.543016
 C         3.032668        -1.808865        -0.931742
 C         3.622350        -0.491773        -1.548619
 C         2.192949        -0.561205        -1.317624
 O         1.467935        -0.567246        -2.479524
 H        -0.477572         0.682447        -0.665844
 H        -0.364561        -1.115976        -0.554213
 H        -0.366449         0.067919         0.989182
 H         1.679806         2.100284        -0.072772
 H         2.092904        -0.885339         2.099128
 H         3.818007        -2.332048         1.152972
 H         2.968941        -2.696773        -1.506567
 H         4.407977         0.092713        -1.003897
 H         3.848104        -0.449457        -2.564906
 H         1.862201         0.178399        -2.934714
