19
Iteration:  2334charge 0 multiplicity 1
 C         0.014436         0.051963        -0.028597
 C         1.556147        -0.033726        -0.012736
 O         1.882154         1.364700         0.511728
 C         2.191863        -0.922197         0.963204
 C         2.999236        -1.844945         0.484882
 C         3.013427        -1.793233        -1.024524
 C         3.714517        -0.531273        -1.534094
 C         2.220095        -0.574809        -1.344962
 O         1.394012        -0.633488        -2.451029
 H        -0.143596         0.377156        -1.015969
 H        -0.424322        -0.964554         0.039333
 H        -0.471885         0.698814         0.718769
 H         2.737994         1.359459         0.877022
 H         1.948987        -0.973183         2.102638
 H         3.583716        -2.539677         1.170326
 H         3.064731        -2.743250        -1.524716
 H         4.413092         0.028400        -0.810627
 H         4.145197        -0.627964        -2.510980
 H         1.318666         0.269032        -2.836267
