19
Iteration:  2578charge 0 multiplicity 1
 C         0.013276        -0.064036         0.082908
 C         1.603111         0.049537         0.046189
 O         1.929733         1.385841         0.118190
 C         2.234797        -1.032991         1.193078
 C         2.758247        -2.012088         0.487583
 C         3.037368        -1.748395        -0.943787
 C         3.742422        -0.389854        -1.404917
 C         2.208220        -0.526676        -1.352125
 O         1.495574        -0.611087        -2.516211
 H        -0.458072         0.915842        -0.253032
 H        -0.353044        -0.723879        -0.588141
 H        -0.223220        -0.240254         1.112948
 H         2.945381         1.366215        -0.149804
 H         1.828694        -0.991640         2.275218
 H         3.228140        -2.856079         1.090997
 H         2.972567        -2.493182        -1.723785
 H         4.282464         0.300380        -0.698071
 H         4.075294        -0.265196        -2.374319
 H         0.844965         0.089836        -2.419300
