19
Iteration:  3817
 C        -0.025038        -0.093677         0.057641
 C         1.549512         0.006826        -0.048010
 O         1.844409         1.346620         0.285921
 C         2.221641        -0.973328         1.011736
 C         3.017871        -1.920602         0.572606
 C         3.084144        -1.843947        -0.884653
 C         3.746165        -0.585263        -1.474097
 C         2.195281        -0.526980        -1.360306
 O         1.446140        -0.411413        -2.493689
 H        -0.597440         0.822453        -0.358290
 H        -0.244038        -0.935737        -0.498634
 H        -0.284889        -0.244985         1.139014
 H         1.007924         1.794182         0.556323
 H         2.241032        -0.495680         1.990323
 H         3.532279        -2.715409         1.176167
 H         3.050484        -2.743482        -1.514484
 H         4.352836         0.133288        -0.801882
 H         4.083347        -0.742730        -2.557223
 H         1.851196         0.215020        -3.090049
