19
Iteration:  2839
 C         0.022571        -0.087617        -0.043866
 C         1.540199        -0.028062         0.002028
 O         1.887991         1.365796         0.354701
 C         2.125059        -0.924729         1.029293
 C         3.007164        -1.917056         0.593887
 C         3.076479        -1.828136        -0.948506
 C         3.759136        -0.508990        -1.544397
 C         2.257033        -0.546024        -1.350051
 O         1.316696        -0.474606        -2.443789
 H        -0.426194         0.144922        -1.082648
 H        -0.170485        -1.153514         0.041150
 H        -0.585674         0.483597         0.757945
 H         2.805609         1.241061         0.727945
 H         1.830060        -0.745726         2.038284
 H         3.780442        -2.507752         1.127973
 H         3.145576        -2.723811        -1.664269
 H         4.307952         0.151641        -0.828531
 H         4.197861        -0.660270        -2.474352
 H         1.493555         0.407261        -2.859214
