19
Iteration:  4693
 C         0.096317        -0.206647         0.070696
 C         1.598913        -0.064399         0.019960
 O         1.903570         1.334777         0.247493
 C         2.220112        -0.938710         1.112350
 C         2.945074        -1.921080         0.460955
 C         3.052838        -1.769901        -1.018852
 C         3.643377        -0.547703        -1.370576
 C         2.097067        -0.596366        -1.300050
 O         1.474822        -0.193665        -2.526144
 H        -0.356800        -1.217692        -0.188338
 H        -0.231854        -0.097761         1.056540
 H        -0.512607         0.562151        -0.551322
 H         2.670749         1.498384        -0.313100
 H         2.032957        -0.773350         2.209501
 H         3.535359        -2.742243         1.015669
 H         2.840872        -2.719700        -1.554789
 H         4.208274        -0.029842        -0.503619
 H         4.151783        -0.443525        -2.375473
 H         0.878748        -0.932938        -2.815091
