19
Iteration:  4022charge 0 multiplicity 1
 C        -0.024506         0.130634         0.066424
 C         1.518035        -0.070847        -0.056860
 O         1.943275         1.287686         0.505884
 C         1.980564        -1.067851         0.953015
 C         2.996377        -1.835531         0.474356
 C         3.167159        -1.689728        -1.004419
 C         3.685109        -0.299622        -1.511748
 C         2.227807        -0.568325        -1.374114
 O         1.475762        -0.853897        -2.478916
 H        -0.243002         1.156924        -0.407722
 H        -0.635783        -0.664011        -0.186544
 H        -0.130909         0.375327         1.189069
 H         2.855361         1.260945         0.649738
 H         1.576514        -0.939341         1.926021
 H         3.721585        -2.291088         1.084851
 H         3.249367        -2.486501        -1.706513
 H         4.062459         0.538059        -0.763059
 H         4.017325        -0.227957        -2.580372
 H         1.328586        -0.059727        -2.978671
