19
Iteration:  2238charge 0 multiplicity 1
 C         0.119389        -0.155970        -0.037575
 C         1.620386        -0.022206        -0.008799
 O         1.805684         1.367551         0.087765
 C         2.231244        -0.893844         1.112222
 C         2.898288        -1.909849         0.546275
 C         2.944084        -1.785389        -0.963339
 C         3.795896        -0.628820        -1.414500
 C         2.278413        -0.530320        -1.270572
 O         1.362206        -0.383441        -2.350961
 H        -0.318204         0.599491        -0.712325
 H        -0.165878        -1.194642        -0.545045
 H        -0.458985        -0.222213         0.913547
 H         2.820493         1.484477         0.080987
 H         2.271562        -0.605680         2.225325
 H         3.236998        -2.944728         0.880948
 H         2.806557        -2.685337        -1.556767
 H         4.507203        -0.311062        -0.618740
 H         3.977968        -0.515094        -2.479636
 H         1.092785         0.579451        -2.325295
