19
Iteration:  2156
 C         0.054623        -0.172678         0.010686
 C         1.606823         0.016856         0.053745
 O         1.807026         1.471326         0.255540
 C         2.241195        -0.925932         0.997756
 C         2.928340        -1.986993         0.542092
 C         2.944647        -1.821806        -0.983113
 C         3.672530        -0.572788        -1.423641
 C         2.222636        -0.523953        -1.251195
 O         1.455323        -0.463856        -2.474473
 H        -0.279307         0.460848        -0.842997
 H        -0.181077        -1.187715        -0.144976
 H        -0.367960         0.284859         0.867699
 H         2.697571         1.625822        -0.018641
 H         2.334269        -0.760313         2.138068
 H         3.286214        -2.787912         1.239432
 H         2.848968        -2.574751        -1.713210
 H         4.481018        -0.143573        -0.760360
 H         4.028339        -0.544856        -2.427708
 H         2.007747         0.167104        -2.969788
