19
Iteration:  3251
 C         0.083290        -0.235481        -0.079684
 C         1.554251        -0.016312         0.136184
 O         1.833067         1.398923         0.235906
 C         2.259066        -0.896597         1.096811
 C         3.020953        -1.863245         0.502765
 C         2.906786        -1.795682        -0.966778
 C         3.673150        -0.635376        -1.554920
 C         2.241705        -0.472039        -1.255471
 O         1.488180        -0.436105        -2.427866
 H        -0.162653         0.338848        -1.093992
 H        -0.111334        -1.272906        -0.245618
 H        -0.583411         0.145740         0.758446
 H         1.122305         1.739554         0.736269
 H         2.282065        -0.753782         2.179124
 H         3.536276        -2.538936         1.230501
 H         2.630080        -2.698042        -1.406743
 H         4.341464        -0.050580        -0.842504
 H         4.028048        -0.632877        -2.568942
 H         2.022879         0.106626        -3.003755
