19
Iteration:  3894charge 0 multiplicity 1
 C         0.094690        -0.328536         0.168836
 C         1.606343         0.028242         0.067852
 O         1.775626         1.389644         0.197496
 C         2.347913        -0.840164         1.136128
 C         2.864489        -1.948246         0.473127
 C         2.870300        -1.876178        -0.998001
 C         3.772173        -0.611882        -1.363383
 C         2.236257        -0.552605        -1.359564
 O         1.538137        -0.290240        -2.639891
 H        -0.418135        -0.266655        -0.837840
 H         0.089929        -1.301271         0.473944
 H        -0.332471         0.313291         0.947761
 H         0.861272         1.866707         0.227708
 H         2.468067        -0.657941         2.258627
 H         3.111035        -2.771240         1.070001
 H         2.893229        -2.591754        -1.786707
 H         4.380935         0.018194        -0.571913
 H         4.205383        -0.526437        -2.366458
 H         1.334159         0.690302        -2.629485
