19
Iteration:  1859charge 0 multiplicity 1
 C        -0.022361        -0.082645         0.145272
 C         1.566318        -0.046799        -0.009858
 O         1.840400         1.430314         0.198634
 C         2.160353        -0.932430         1.040022
 C         2.939309        -1.943452         0.532511
 C         3.060148        -1.885397        -0.945817
 C         3.665137        -0.593069        -1.491000
 C         2.229027        -0.505989        -1.307654
 O         1.508336        -0.432077        -2.497908
 H        -0.338198         0.899734        -0.184587
 H        -0.453623        -0.769341        -0.598078
 H        -0.347113        -0.282066         1.193325
 H         2.761917         1.541930         0.580530
 H         2.061875        -0.876309         2.158786
 H         3.438886        -2.637400         1.188159
 H         2.932095        -2.722995        -1.614924
 H         4.236840         0.055951        -0.757362
 H         4.007998        -0.681290        -2.476245
 H         2.052077         0.187471        -3.051134
