19
Iteration:   233
 C        -0.033424        -0.154133        -0.063034
 C         1.541928        -0.053284         0.006559
 O         1.917371         1.356112         0.181925
 C         2.033656        -0.896307         1.130392
 C         2.848936        -1.859381         0.512763
 C         3.096155        -1.831229        -0.946947
 C         3.772433        -0.547045        -1.366520
 C         2.246365        -0.590960        -1.333858
 O         1.470826        -0.396599        -2.435208
 H        -0.436774         0.458398         0.769820
 H        -0.270881         0.349993        -1.032952
 H        -0.361280        -1.213463        -0.094395
 H         2.780951         1.210743         0.473532
 H         1.639515        -0.856897         2.184320
 H         3.513637        -2.539775         1.046451
 H         3.408828        -2.665501        -1.537669
 H         4.314438         0.086058        -0.559489
 H         4.404820        -0.503483        -2.241659
 H         1.828014         0.319840        -3.012073
