19
Iteration:  4319charge 0 multiplicity 1
 C        -0.052321         0.058348        -0.126741
 C         1.530814        -0.064261         0.027151
 O         2.023914         1.219395         0.440732
 C         2.074778        -1.097623         1.027193
 C         3.012241        -1.909493         0.513206
 C         3.190893        -1.693428        -1.002542
 C         3.696159        -0.263898        -1.484151
 C         2.239010        -0.560935        -1.392749
 O         1.322533        -0.637930        -2.423862
 H        -0.626190        -0.749477        -0.439994
 H        -0.477227         0.249949         0.962794
 H        -0.260952         0.938750        -0.654406
 H         2.996583         1.269329         0.387093
 H         1.788762        -1.004863         2.075038
 H         3.504475        -2.671145         1.078484
 H         3.510773        -2.507434        -1.662903
 H         4.015603         0.537599        -0.898619
 H         4.276230        -0.183678        -2.362069
 H         0.545183        -0.011172        -2.273627
