19
Iteration:   855
 C        -0.003087        -0.045252        -0.258384
 C         1.520785        -0.036197        -0.031681
 O         1.913787         1.386214         0.285017
 C         2.087395        -0.919363         1.106765
 C         2.908736        -1.873126         0.629180
 C         3.023260        -1.827148        -0.832307
 C         3.726965        -0.603897        -1.409977
 C         2.266620        -0.521382        -1.354073
 O         1.545306        -0.407429        -2.450455
 H        -0.426516        -0.430434         0.712450
 H        -0.416571         1.021541        -0.356575
 H        -0.557847        -0.721219        -0.869495
 H         2.784462         1.572681        -0.090538
 H         1.918324        -0.795054         2.194660
 H         3.503652        -2.672628         1.106921
 H         2.960024        -2.793620        -1.355019
 H         4.529321        -0.028876        -0.847236
 H         4.111274        -0.862470        -2.378211
 H         0.996355        -1.212711        -2.445023
