19
Iteration:  2056
 C         0.007551        -0.028570        -0.065940
 C         1.572880         0.096672        -0.002882
 O         1.813710         1.395464         0.498760
 C         2.213935        -0.936662         1.154197
 C         2.935070        -1.903083         0.518885
 C         2.923742        -1.817268        -0.992650
 C         3.720707        -0.574226        -1.612591
 C         2.254636        -0.515162        -1.298614
 O         1.546414        -0.516188        -2.525590
 H        -0.395528         0.667524        -0.776912
 H        -0.352671        -1.089121        -0.255600
 H        -0.255310         0.205682         0.922008
 H         2.710353         1.627705         0.356582
 H         2.374019        -0.738438         2.167435
 H         3.427472        -2.814657         0.944535
 H         2.739858        -2.712801        -1.655341
 H         4.550008        -0.118036        -1.152101
 H         3.949807        -0.792164        -2.715169
 H         1.059473        -1.343329        -2.586778
