19
Iteration:   871charge 0 multiplicity 1
 C         0.044473        -0.048399        -0.130316
 C         1.602176         0.042678         0.033366
 O         1.900124         1.466183         0.214360
 C         2.033508        -1.033541         1.095356
 C         2.853656        -1.937924         0.629248
 C         3.024921        -1.726297        -0.892666
 C         3.842283        -0.561580        -1.407667
 C         2.272219        -0.525902        -1.234877
 O         1.482858        -0.552791        -2.545534
 H        -0.577559        -0.345447         0.694137
 H        -0.238358         0.876667        -0.549548
 H        -0.153434        -0.680745        -1.039242
 H         2.923746         1.552867         0.116492
 H         1.569630        -0.958577         2.059342
 H         3.248946        -2.771024         1.209930
 H         3.023477        -2.546656        -1.608721
 H         4.315781         0.009994        -0.662900
 H         4.231010        -0.587302        -2.488606
 H         0.568585        -0.856392        -2.322820
