19
Iteration:   205
 C         0.038069        -0.201717        -0.192612
 C         1.601298        -0.035934        -0.037552
 O         1.988327         1.417760         0.067912
 C         2.095480        -1.028787         1.108212
 C         2.900155        -1.982354         0.643294
 C         2.972527        -1.784510        -0.832533
 C         3.656522        -0.460352        -1.412308
 C         2.238301        -0.504540        -1.224124
 O         1.485474        -0.389896        -2.386290
 H        -0.343931        -0.367772         0.813606
 H        -0.266511         0.803548        -0.448450
 H        -0.222498        -1.080812        -0.881202
 H         2.044763         1.550651         1.009662
 H         1.685574        -0.722151         2.039741
 H         3.402926        -2.834590         1.128487
 H         3.025268        -2.548257        -1.626912
 H         4.315700         0.201179        -0.818286
 H         3.878103        -0.700814        -2.451983
 H         1.987093         0.044716        -3.082295
