19
Iteration:  3124
 C         0.002711        -0.049930        -0.078100
 C         1.477901        -0.086363        -0.020931
 O         1.990184         1.218261         0.544038
 C         2.116398        -0.984994         1.125201
 C         3.030257        -1.760641         0.571950
 C         3.071306        -1.680033        -0.922712
 C         3.758302        -0.500191        -1.592805
 C         2.232644        -0.512162        -1.381392
 O         1.335038        -0.585296        -2.541642
 H        -0.280023         0.564479        -0.871008
 H        -0.541255        -1.101343        -0.185371
 H        -0.297723         0.497136         0.858957
 H         1.696046         1.855163        -0.165025
 H         2.096888        -0.782558         2.175959
 H         3.825925        -2.150199         1.243922
 H         3.082819        -2.620509        -1.404193
 H         4.416824         0.169584        -0.927855
 H         3.801442        -0.676586        -2.639244
 H         1.833691        -0.192090        -3.311011
