19
Iteration:   938
 C        -0.018994         0.022562        -0.008387
 C         1.494821        -0.066805         0.035438
 O         1.944786         1.352692         0.228208
 C         2.000887        -1.017435         1.041946
 C         2.990637        -1.816532         0.585628
 C         2.976594        -1.815195        -0.936518
 C         3.693072        -0.518845        -1.336188
 C         2.171751        -0.607030        -1.321658
 O         1.619721        -0.528365        -2.562293
 H        -0.223254         1.053144         0.065288
 H        -0.246985        -0.254110        -0.987423
 H        -0.506005        -0.673275         0.658473
 H         2.897612         1.306550         0.165379
 H         1.661776        -0.842999         2.065500
 H         3.707986        -2.412235         1.210190
 H         3.109422        -2.686920        -1.595410
 H         4.195686         0.034244        -0.563330
 H         4.189612        -0.470566        -2.301692
 H         1.587566         0.390698        -2.879215
