19
Iteration:  4945charge 0 multiplicity 1
 C        -0.050865         0.011814         0.077786
 C         1.493768        -0.073409         0.077892
 O         1.909871         1.313373         0.247169
 C         2.117106        -1.016627         1.044734
 C         2.994839        -1.897846         0.435418
 C         3.139113        -1.721758        -1.050962
 C         3.766071        -0.408631        -1.446284
 C         2.190242        -0.610382        -1.285074
 O         1.454087        -0.567516        -2.448402
 H        -0.385887         0.335532        -0.892925
 H        -0.457601        -0.927942         0.197335
 H        -0.515512         0.683964         0.821636
 H         2.920089         1.279438         0.152135
 H         2.007175        -0.988671         2.192073
 H         3.632961        -2.522557         1.064168
 H         3.030018        -2.616477        -1.624016
 H         4.432877         0.269637        -0.856547
 H         3.906146        -0.271919        -2.525508
 H         0.917152         0.228426        -2.335743
