19
Iteration:  3984
 C        -0.016174        -0.095339        -0.139724
 C         1.557864        -0.059832         0.074348
 O         2.082062         1.329967         0.284909
 C         2.157646        -1.002539         1.107373
 C         2.933201        -1.844261         0.548536
 C         3.107439        -1.699014        -0.981974
 C         3.647045        -0.336152        -1.499987
 C         2.207997        -0.590551        -1.305021
 O         1.347491        -0.640613        -2.443950
 H        -0.390625         0.898585        -0.241761
 H        -0.329624        -0.502088        -1.208461
 H        -0.608728        -0.578450         0.599159
 H         2.288745         1.395856         1.263562
 H         1.939728        -1.030019         2.205524
 H         3.609095        -2.600787         1.064466
 H         3.404525        -2.577961        -1.637770
 H         4.052354         0.318934        -0.824792
 H         3.976130        -0.326430        -2.528220
 H         1.163031         0.306366        -2.573499
