19
Iteration:  4033
 C         0.030882         0.212392         0.061970
 C         1.465261        -0.058654         0.003744
 O         1.936499         1.253246         0.540463
 C         1.990710        -1.055625         0.956678
 C         3.000571        -1.843685         0.474656
 C         3.256971        -1.642309        -1.000403
 C         3.652814        -0.268880        -1.513043
 C         2.164126        -0.640179        -1.343028
 O         1.453681        -0.854603        -2.553112
 H        -0.497277         0.801684        -0.789380
 H        -0.466908        -0.687938        -0.013519
 H        -0.222848         0.611169         1.119263
 H         2.879270         1.337984         0.312289
 H         1.878021        -1.049092         2.016977
 H         3.441373        -2.659256         1.002520
 H         3.333880        -2.552963        -1.559978
 H         4.173755         0.503099        -0.752050
 H         4.202856        -0.304849        -2.507094
 H         1.408870        -0.022524        -3.092516
