19
Iteration:  4389
 C         0.068136        -0.192734         0.132135
 C         1.542153        -0.031517        -0.014619
 O         1.832247         1.357873         0.304565
 C         2.215588        -0.917347         1.003024
 C         2.926320        -1.969475         0.405366
 C         3.019870        -1.738254        -1.052726
 C         3.767139        -0.547270        -1.399337
 C         2.214753        -0.468557        -1.288334
 O         1.404818        -0.448936        -2.492772
 H        -0.248841        -1.238940        -0.095773
 H        -0.117463        -0.098779         1.118208
 H        -0.395789         0.640050        -0.450783
 H         2.208513         1.389324         1.147944
 H         2.016822        -0.872787         2.049174
 H         3.413053        -2.703417         1.034165
 H         3.068420        -2.514443        -1.797005
 H         4.297045         0.219062        -0.735366
 H         4.260010        -0.446041        -2.384134
 H         1.764333         0.274128        -3.090293
