19
Iteration:  3345
 C        -0.064489        -0.074878         0.278358
 C         1.538167        -0.136546         0.008153
 O         1.841578         1.365024         0.043452
 C         2.284644        -1.021128         1.049117
 C         2.942728        -1.931195         0.459709
 C         3.008434        -1.781351        -1.010986
 C         3.749116        -0.445172        -1.293592
 C         2.173920        -0.573204        -1.311158
 O         1.545363        -0.460374        -2.566585
 H        -0.466802         0.896458        -0.237039
 H        -0.469334        -1.097717        -0.046632
 H        -0.150714         0.138844         1.347808
 H         1.159460         1.697925         0.712081
 H         2.258326        -0.799284         2.149162
 H         3.637143        -2.643331         0.911050
 H         3.136031        -2.507811        -1.730978
 H         4.266197         0.032410        -0.434574
 H         4.226875        -0.209429        -2.201655
 H         1.736972         0.379714        -3.052725
