19
Iteration:  2465charge 0 multiplicity 1
 C         0.057210        -0.236988         0.099245
 C         1.618237         0.019398        -0.015436
 O         1.863448         1.382183         0.155292
 C         2.279181        -0.862956         1.111218
 C         2.805080        -1.970579         0.557156
 C         2.934964        -1.773795        -0.986154
 C         3.786170        -0.593062        -1.415905
 C         2.212723        -0.509147        -1.301647
 O         1.435315        -0.387336        -2.514753
 H        -0.599240        -0.007475        -0.672063
 H        -0.228619        -1.305115         0.308172
 H        -0.189061         0.388940         0.932992
 H         2.761892         1.580038        -0.150607
 H         2.089939        -0.725052         2.182001
 H         3.297035        -2.773012         1.060458
 H         2.749453        -2.684480        -1.517891
 H         4.352362        -0.384340        -0.528604
 H         4.231526        -0.605593        -2.466740
 H         1.541138         0.539025        -2.766735
