19
Iteration:  1667charge 0 multiplicity 1
 C         0.086463        -0.069962         0.024701
 C         1.610608        -0.012123        -0.042570
 O         1.890004         1.343539         0.112489
 C         2.151737        -0.999251         1.075272
 C         2.813044        -1.993080         0.536927
 C         3.092685        -1.762818        -0.926255
 C         3.782453        -0.529074        -1.295782
 C         2.236569        -0.514059        -1.288305
 O         1.344838        -0.454172        -2.462086
 H        -0.354943         0.840384        -0.347357
 H        -0.390505        -0.932176        -0.551463
 H        -0.196277        -0.088991         1.076025
 H         2.773829         1.469001        -0.204251
 H         1.605891        -1.045826         2.094839
 H         3.349661        -2.755089         1.131343
 H         3.173563        -2.383693        -1.823922
 H         4.190378         0.161114        -0.460011
 H         4.217744        -0.510591        -2.298585
 H         1.698500         0.385920        -2.815360
