19
Iteration:  3832
 C         0.043406        -0.219430        -0.035636
 C         1.584118        -0.045121         0.024115
 O         1.840244         1.404284         0.227209
 C         2.283362        -0.902914         1.136783
 C         3.011325        -1.960078         0.599479
 C         3.005144        -1.811119        -0.907853
 C         3.728718        -0.627048        -1.499928
 C         2.260303        -0.526294        -1.290028
 O         1.378119        -0.291294        -2.510754
 H        -0.405738         0.487103        -0.747379
 H        -0.452220        -1.277416        -0.295836
 H        -0.375214         0.007827         0.947057
 H         0.927306         1.851038         0.364990
 H         1.990838        -0.982725         2.224963
 H         3.526298        -2.706444         1.157118
 H         3.078250        -2.688251        -1.542310
 H         4.539138        -0.010679        -1.116148
 H         3.862359        -0.884953        -2.489128
 H         1.936609         0.316776        -3.070662
