19
Iteration:   793
 C         0.074373        -0.116147         0.035006
 C         1.520561        -0.008152        -0.021442
 O         1.800053         1.451193         0.133868
 C         2.134535        -0.915082         1.054401
 C         2.750818        -1.993001         0.551311
 C         2.994837        -1.808067        -0.946828
 C         3.801187        -0.517419        -1.340047
 C         2.269827        -0.533168        -1.265592
 O         1.627367        -0.411269        -2.489578
 H        -0.362514         0.672475         0.640899
 H        -0.133679         0.076523        -1.035004
 H        -0.278627        -1.086783         0.281119
 H         2.754060         1.429456        -0.059781
 H         1.910095        -0.757908         2.124759
 H         3.189934        -2.791828         1.139178
 H         2.782328        -2.701802        -1.516453
 H         4.486702        -0.209555        -0.464428
 H         4.250706        -0.533681        -2.284612
 H         1.121946        -1.219543        -2.722685
