19
Iteration:   528charge 0 multiplicity 1
 C         0.094551        -0.127987        -0.127276
 C         1.614957         0.013445        -0.028587
 O         1.878482         1.383637         0.378299
 C         2.185897        -0.855115         0.997519
 C         2.776407        -1.959782         0.484488
 C         2.928351        -1.752345        -0.891941
 C         3.792369        -0.478052        -1.311254
 C         2.277007        -0.489810        -1.355171
 O         1.476050        -0.548507        -2.469520
 H        -0.364870        -0.177522         0.823464
 H        -0.337991         0.691685        -0.673532
 H        -0.250824        -1.102239        -0.591942
 H         2.411786         1.892831        -0.181670
 H         1.892771        -0.671858         2.088066
 H         3.227732        -2.803067         1.060839
 H         2.872040        -2.533910        -1.641922
 H         4.254875        -0.197176        -0.327140
 H         4.398683        -0.420221        -2.229841
 H         1.303296        -1.426830        -2.858389
