19
Iteration:   565charge 0 multiplicity 1
 C         0.020106        -0.064845        -0.109654
 C         1.537787        -0.056548        -0.028335
 O         2.013758         1.318277         0.318078
 C         2.020573        -1.027845         1.077313
 C         2.900107        -1.913585         0.569340
 C         3.072774        -1.725260        -0.870690
 C         3.674041        -0.462835        -1.446185
 C         2.214303        -0.573916        -1.251640
 O         1.582452        -0.399525        -2.519290
 H        -0.400556         0.843757         0.409969
 H        -0.112358         0.013076        -1.213026
 H        -0.353703        -1.018448         0.133217
 H         1.481798         1.855704        -0.252984
 H         1.723065        -0.912199         2.077602
 H         3.601493        -2.546077         1.078992
 H         3.122693        -2.732604        -1.302387
 H         4.301594         0.163929        -0.816568
 H         4.119893        -0.654578        -2.434948
 H         0.826204        -1.000658        -2.519995
