19
Iteration:  4111
 C        -0.012775        -0.181354         0.067854
 C         1.604220        -0.021673         0.021638
 O         1.752162         1.378571         0.251012
 C         2.226023        -1.020038         1.080419
 C         2.948355        -1.973516         0.546062
 C         3.019293        -1.756747        -0.963892
 C         3.754929        -0.527330        -1.438959
 C         2.236976        -0.550641        -1.341483
 O         1.453971        -0.364656        -2.548657
 H        -0.469793        -0.621006        -0.875505
 H        -0.325427        -0.814202         0.900249
 H        -0.355425         0.852047         0.228626
 H         2.613872         1.593033         0.501381
 H         2.177959        -0.648076         2.111671
 H         3.588672        -2.833169         0.948749
 H         3.089888        -2.649806        -1.658134
 H         4.482031         0.027268        -0.757042
 H         4.342112        -0.515170        -2.424104
 H         1.338415         0.570667        -2.660540
