19
Iteration:  3464charge 0 multiplicity 1
 C        -0.039999         0.024426         0.144395
 C         1.498008        -0.102420         0.004955
 O         1.947638         1.337037         0.233391
 C         2.105656        -1.020767         1.052882
 C         2.991538        -1.885388         0.491765
 C         3.133659        -1.719613        -0.957525
 C         3.651922        -0.288403        -1.434581
 C         2.156563        -0.568871        -1.324965
 O         1.506243        -0.719088        -2.557959
 H        -0.297841         1.015200         0.191098
 H        -0.779228        -0.446164        -0.583942
 H        -0.335713        -0.184979         1.138708
 H         2.833129         1.296054         0.526013
 H         1.794277        -1.083131         2.081592
 H         3.438391        -2.683886         1.137676
 H         3.232719        -2.452341        -1.719579
 H         4.277653         0.283404        -0.772688
 H         4.098402        -0.266288        -2.401301
 H         1.620520         0.165329        -2.917857
