19
Iteration:  1011charge 0 multiplicity 1
 C         0.011693        -0.219275        -0.029518
 C         1.571720         0.001910         0.030866
 O         1.835678         1.437114         0.321175
 C         2.165706        -0.913814         1.036010
 C         2.763377        -1.982792         0.502682
 C         2.899602        -1.822104        -0.970977
 C         3.826615        -0.582150        -1.378264
 C         2.281974        -0.456845        -1.299384
 O         1.581647        -0.340196        -2.509019
 H        -0.226350        -0.129203        -1.080569
 H        -0.294343        -1.216726         0.384833
 H        -0.483639         0.560348         0.645532
 H         2.645669         1.646119        -0.268543
 H         2.119689        -0.745799         2.099850
 H         3.214593        -2.802370         1.109245
 H         2.987881        -2.715962        -1.603646
 H         4.274029        -0.117491        -0.542621
 H         4.317183        -0.258406        -2.325610
 H         1.629770        -1.246505        -2.890081
