19
Iteration:  1558charge 0 multiplicity 1
 C         0.039408        -0.106789        -0.030983
 C         1.610761         0.004447         0.065697
 O         1.953190         1.367780         0.120079
 C         2.220601        -0.997249         1.126490
 C         2.766362        -2.032660         0.445121
 C         3.047835        -1.796883        -0.953949
 C         3.752802        -0.486975        -1.349483
 C         2.256393        -0.538900        -1.214341
 O         1.425390        -0.377955        -2.414222
 H        -0.373954         0.222505        -0.955437
 H        -0.220806        -1.168380         0.105422
 H        -0.307777         0.548385         0.721582
 H         1.183813         1.827394        -0.145966
 H         1.802909        -1.045387         2.086680
 H         3.342825        -2.814269         0.899330
 H         2.885544        -2.554676        -1.730606
 H         4.300931        -0.113089        -0.521893
 H         4.159301        -0.328973        -2.398509
 H         1.959569        -0.138610        -3.193972
