19
Iteration:   153
 C        -0.008231        -0.070101         0.026637
 C         1.526918         0.043388        -0.022364
 O         1.853049         1.417587         0.398378
 C         2.140813        -0.877109         1.012677
 C         2.849598        -1.968429         0.478271
 C         2.904713        -1.828492        -0.938542
 C         3.773385        -0.572807        -1.405315
 C         2.283125        -0.532977        -1.321601
 O         1.688178        -0.587403        -2.557805
 H        -0.132701        -0.720839         0.933681
 H        -0.438869         0.941838         0.208399
 H        -0.426403        -0.692327        -0.778374
 H         1.802457         1.898094        -0.397478
 H         2.103641        -0.589341         2.056091
 H         3.616186        -2.417006         1.138645
 H         2.785922        -2.712345        -1.611866
 H         4.160819        -0.020197        -0.553138
 H         4.218012        -0.659016        -2.388398
 H         1.128848         0.170773        -2.795581
