19
Iteration:  2247
 C         0.082441        -0.168506        -0.053970
 C         1.620056        -0.005148        -0.019415
 O         1.867949         1.390437         0.055715
 C         2.280788        -0.931789         1.118718
 C         2.878580        -1.953790         0.489410
 C         2.935213        -1.799464        -0.935948
 C         3.794721        -0.578865        -1.300520
 C         2.215172        -0.572057        -1.316099
 O         1.336012        -0.374141        -2.356117
 H        -0.492106         0.605081        -0.483727
 H        -0.183262        -1.159424        -0.426141
 H        -0.200336        -0.126299         1.031080
 H         2.783125         1.615295        -0.298447
 H         2.106042        -0.882437         2.188557
 H         3.440637        -2.679830         1.075262
 H         2.967838        -2.641826        -1.672667
 H         4.374762        -0.078621        -0.516914
 H         4.337823        -0.555193        -2.290589
 H         1.025359         0.568701        -2.372855
