19
Iteration:  2821charge 0 multiplicity 1
 C         0.133869        -0.228445        -0.167108
 C         1.681071         0.017101         0.006803
 O         1.858647         1.343002         0.392783
 C         2.170710        -0.898332         1.084532
 C         2.922737        -1.851786         0.500165
 C         2.943744        -1.669240        -0.955265
 C         3.713331        -0.565585        -1.494293
 C         2.216422        -0.436475        -1.335894
 O         1.381420        -0.572859        -2.390487
 H        -0.183471         0.325851        -0.959115
 H        -0.196603        -1.321606        -0.173990
 H        -0.166383         0.215307         0.779769
 H         2.837913         1.420087         0.636590
 H         2.048501        -0.774069         2.169951
 H         3.241937        -2.768767         1.015377
 H         2.656670        -2.574127        -1.544593
 H         4.501993        -0.088980        -0.862956
 H         3.871351        -0.564467        -2.564171
 H         1.273817         0.212844        -2.978118
