19
Iteration:  2994
 C        -0.014268        -0.158654         0.106886
 C         1.464064        -0.091384        -0.003120
 O         1.783133         1.266940         0.188917
 C         2.287074        -0.871314         1.049771
 C         3.035009        -1.832070         0.567595
 C         3.013061        -1.873342        -0.917228
 C         3.722991        -0.611938        -1.427732
 C         2.179011        -0.518722        -1.350974
 O         1.484817        -0.306215        -2.573835
 H        -0.232276         0.395098        -0.775444
 H        -0.377771        -1.291892         0.050356
 H        -0.314350         0.429943         1.017651
 H         1.909192         1.404424         1.107993
 H         2.363013        -0.548404         2.118243
 H         3.788509        -2.421654         1.086986
 H         2.887503        -2.820932        -1.335295
 H         4.431494        -0.061931        -0.887965
 H         4.192105        -0.647628        -2.447846
 H         1.927042         0.488570        -2.872228
