19
Iteration:    34
 C        -0.038019        -0.055130         0.099811
 C         1.534225         0.023839        -0.049255
 O         1.883983         1.316536         0.407826
 C         2.110864        -0.927251         0.967876
 C         2.960720        -1.844854         0.512974
 C         3.007337        -1.763762        -0.972819
 C         3.808635        -0.472739        -1.401009
 C         2.205351        -0.582442        -1.390450
 O         1.485525        -0.494528        -2.535758
 H        -0.395988         0.714668         0.801016
 H        -0.498841         0.024711        -0.880700
 H        -0.261123        -1.046758         0.453084
 H         2.852419         1.449753         0.297004
 H         1.742635        -0.863152         1.949596
 H         3.162617        -2.776405         0.966987
 H         3.146156        -2.660875        -1.566204
 H         4.348560        -0.012149        -0.533330
 H         4.301735        -0.439412        -2.323323
 H         1.729947        -1.255805        -3.105733
