19
Iteration:  4043
 C        -0.052231         0.178508         0.028441
 C         1.501005        -0.009270         0.050114
 O         1.977499         1.223135         0.515176
 C         2.077250        -1.106804         1.031726
 C         3.002893        -1.880930         0.474930
 C         3.225620        -1.601826        -0.938407
 C         3.632344        -0.265786        -1.484165
 C         2.163122        -0.602827        -1.388093
 O         1.416272        -0.853683        -2.599299
 H        -0.258349         0.670867        -0.990656
 H        -0.481679        -0.768185         0.143849
 H        -0.347610         0.950298         0.857069
 H         2.894972         1.418896         0.119287
 H         1.741796        -1.075456         2.047054
 H         3.340848        -2.700970         1.012441
 H         3.543962        -2.349108        -1.610180
 H         4.289003         0.364126        -0.746481
 H         3.997706        -0.227828        -2.539373
 H         1.488372         0.062687        -3.018388
