19
Iteration:  3846charge 0 multiplicity 1
 C         0.128883        -0.318981        -0.060152
 C         1.629174        -0.033282         0.090537
 O         1.855540         1.377286         0.185599
 C         2.215404        -0.886761         1.166685
 C         2.931142        -1.860448         0.528699
 C         2.954070        -1.821954        -0.964053
 C         3.696435        -0.617766        -1.567750
 C         2.210416        -0.535330        -1.281235
 O         1.442287        -0.276379        -2.375061
 H        -0.065334         0.033560        -1.030702
 H         0.026222        -1.437708        -0.098267
 H        -0.456819         0.179338         0.743352
 H         1.027038         1.772547         0.237463
 H         2.060302        -0.622392         2.165418
 H         3.447924        -2.689881         1.067787
 H         2.728413        -2.786870        -1.450228
 H         4.329726        -0.200090        -0.836143
 H         4.154509        -0.522007        -2.590166
 H         1.911833         0.369266        -2.908434
