19
Iteration:  2407charge 0 multiplicity 1
 C        -0.037429         0.019699         0.283272
 C         1.521890        -0.058949         0.005237
 O         1.878540         1.316074         0.169152
 C         2.172313        -0.932617         0.935078
 C         2.877418        -1.956987         0.479573
 C         3.005019        -1.759726        -0.961782
 C         3.760185        -0.457654        -1.348381
 C         2.247306        -0.551179        -1.332382
 O         1.486869        -0.593059        -2.577834
 H        -0.138076         1.099929         0.088448
 H        -0.638247        -0.641259        -0.295390
 H        -0.215803        -0.172667         1.392338
 H         2.863962         1.372368         0.099457
 H         1.977402        -0.822727         2.027578
 H         3.581126        -2.691695         0.972962
 H         3.245172        -2.659660        -1.549766
 H         4.320089         0.228935        -0.660199
 H         4.288332        -0.485162        -2.255604
 H         1.414593         0.372464        -2.802193
