19
Iteration:  4091charge 0 multiplicity 1
 C        -0.041045        -0.095778        -0.059352
 C         1.499765        -0.093147         0.012607
 O         1.933458         1.339554         0.311190
 C         2.157593        -1.007270         1.024584
 C         2.968045        -1.869368         0.469402
 C         3.141599        -1.773325        -1.010366
 C         3.747590        -0.427382        -1.393414
 C         2.211851        -0.544648        -1.302558
 O         1.372535        -0.496968        -2.393384
 H        -0.279120        -0.352021        -1.073731
 H        -0.370929        -0.904822         0.651584
 H        -0.394543         0.853368         0.192656
 H         2.907498         1.367401         0.126851
 H         1.696552        -0.984781         1.997607
 H         3.514453        -2.627719         1.138164
 H         3.265966        -2.675671        -1.660637
 H         4.373032         0.215903        -0.756917
 H         4.137247        -0.264005        -2.425993
 H         1.138812         0.427420        -2.544711
