19
Iteration:  2633
 C        -0.014858        -0.005971        -0.035345
 C         1.509325        -0.061226        -0.021665
 O         1.938409         1.296552         0.378708
 C         2.158701        -0.956095         1.084575
 C         3.033585        -1.832816         0.543870
 C         3.028133        -1.780225        -0.951158
 C         3.725195        -0.509551        -1.452973
 C         2.200040        -0.540084        -1.364357
 O         1.361896        -0.542549        -2.516008
 H        -0.344002         0.396382        -1.020969
 H        -0.472328        -0.916866         0.031811
 H        -0.450290         0.584096         0.779914
 H         2.949540         1.091747         0.431961
 H         2.061142        -0.513324         2.132848
 H         3.588973        -2.611346         1.084610
 H         3.070471        -2.713768        -1.421893
 H         4.367477         0.036433        -0.777973
 H         4.176138        -0.626422        -2.467394
 H         1.671655         0.245344        -2.992609
