19
Iteration:  3801
 C        -0.000043        -0.115375         0.075184
 C         1.522773        -0.058514         0.001280
 O         1.960079         1.356666         0.305394
 C         2.182558        -0.886343         1.030765
 C         2.913495        -1.811243         0.498550
 C         3.025895        -1.799860        -1.054975
 C         3.709144        -0.493928        -1.405577
 C         2.232874        -0.596822        -1.302433
 O         1.482126        -0.577295        -2.517144
 H        -0.227077         0.880432        -0.135452
 H        -0.556878        -0.835845        -0.676281
 H        -0.212127        -0.361195         1.114471
 H         1.184259         1.748108         0.642950
 H         1.872597        -0.795808         2.092796
 H         3.612665        -2.335801         1.103494
 H         3.011912        -2.680797        -1.682908
 H         4.302471        -0.039475        -0.656492
 H         4.186450        -0.273664        -2.327422
 H         1.828699         0.170631        -2.987891
