19
Iteration:  1697charge 0 multiplicity 1
 C         0.034189        -0.119663         0.076893
 C         1.584869         0.030279         0.019835
 O         1.986406         1.440012         0.142324
 C         2.163222        -0.910888         1.073128
 C         2.782607        -2.024355         0.462448
 C         2.939423        -1.823193        -0.985199
 C         3.706887        -0.388645        -1.345183
 C         2.201911        -0.594400        -1.236435
 O         1.582286        -0.565885        -2.550119
 H        -0.545473         0.252392        -0.780937
 H        -0.238166        -1.210113         0.071196
 H        -0.404565         0.405731         0.985821
 H         2.642591         1.448230         0.946963
 H         1.845949        -1.005358         2.147492
 H         3.270509        -2.867898         1.033108
 H         3.048372        -2.458707        -1.886570
 H         4.350590         0.141288        -0.658477
 H         3.918191        -0.237399        -2.412625
 H         1.175708         0.323937        -2.500463
