19
Iteration:  1127
 C         0.044935        -0.133286        -0.141664
 C         1.584664         0.020245        -0.022039
 O         1.834160         1.460241         0.446611
 C         2.158014        -0.912363         1.042717
 C         2.891651        -1.911828         0.540681
 C         3.033557        -1.789788        -0.908748
 C         3.767569        -0.591916        -1.429402
 C         2.258805        -0.521133        -1.361096
 O         1.433906        -0.523885        -2.515923
 H        -0.479687         0.760746        -0.510896
 H        -0.166552        -1.007146        -0.852245
 H        -0.492212        -0.525142         0.688759
 H         2.740558         1.674178         0.869570
 H         1.816696        -0.897812         2.096294
 H         3.281712        -2.684044         1.237771
 H         2.765482        -2.653062        -1.545056
 H         4.178911         0.034699        -0.636299
 H         4.390489        -0.665951        -2.393791
 H         1.914568        -0.122468        -3.269967
