19
Iteration:  1660
 C         0.055256        -0.025764        -0.001470
 C         1.558176        -0.057006        -0.060937
 O         1.882796         1.338778         0.177446
 C         2.174993        -0.980506         1.065284
 C         2.889244        -1.989646         0.545775
 C         3.022203        -1.744401        -0.936240
 C         3.839020        -0.510181        -1.261303
 C         2.260503        -0.602283        -1.303145
 O         1.314208        -0.415430        -2.464917
 H        -0.226981         0.962971        -0.413344
 H        -0.265024        -0.871729        -0.592363
 H        -0.301837        -0.342692         0.985517
 H         2.621915         1.656799        -0.454922
 H         1.669212        -0.892539         2.017173
 H         3.384046        -2.720071         1.141388
 H         3.070401        -2.613261        -1.590526
 H         4.541493         0.036535        -0.577929
 H         4.145771        -0.547182        -2.282463
 H         1.721602         0.282401        -2.988182
