19
Iteration:  2464charge 0 multiplicity 1
 C         0.055820        -0.236210         0.106830
 C         1.619456         0.022756        -0.016484
 O         1.861149         1.383078         0.155139
 C         2.273301        -0.863466         1.107729
 C         2.809936        -1.972200         0.557743
 C         2.931481        -1.777219        -0.993043
 C         3.775795        -0.586094        -1.414774
 C         2.206747        -0.509810        -1.306023
 O         1.451191        -0.393385        -2.516259
 H        -0.618209         0.006199        -0.664241
 H        -0.229520        -1.308764         0.304725
 H        -0.168839         0.407632         0.969775
 H         2.790882         1.593901        -0.161427
 H         2.119958        -0.718728         2.215972
 H         3.281432        -2.820494         1.063404
 H         2.751938        -2.672724        -1.508836
 H         4.366383        -0.378591        -0.519295
 H         4.223088        -0.592709        -2.446429
 H         1.524369         0.530809        -2.768891
