19
Iteration:  1217
 C         0.036934        -0.105068        -0.041064
 C         1.586903        -0.074983        -0.081826
 O         1.985308         1.328409         0.195736
 C         2.111046        -0.934998         0.990612
 C         2.731453        -2.027180         0.494883
 C         2.979050        -1.791757        -0.896834
 C         3.852064        -0.253134        -1.190594
 C         2.285331        -0.551679        -1.303202
 O         1.454808        -0.535673        -2.489748
 H        -0.484420         0.336663        -0.911506
 H        -0.250792        -1.142390         0.018103
 H        -0.311233         0.274720         1.017705
 H         2.583483         1.558880        -0.626982
 H         2.021731        -0.829337         2.031894
 H         3.040450        -2.868341         1.061395
 H         3.187105        -2.573891        -1.617260
 H         4.213999         0.145321        -0.232240
 H         4.221431        -0.131261        -2.145785
 H         0.861028         0.216632        -2.341622
