19
Iteration:  1548charge 0 multiplicity 1
 C         0.086439        -0.101024         0.034764
 C         1.601860        -0.049085         0.028301
 O         1.987680         1.341426         0.088171
 C         2.159650        -1.010765         1.066497
 C         2.844292        -2.052761         0.529410
 C         2.953808        -1.737064        -0.977444
 C         3.748552        -0.437682        -1.275535
 C         2.180724        -0.562010        -1.239910
 O         1.427011        -0.354645        -2.480330
 H        -0.218703         0.254108        -0.955691
 H        -0.353011        -1.188790         0.175553
 H        -0.419826         0.336051         0.876740
 H         1.355068         1.940209        -0.375300
 H         2.041917        -1.033571         2.134652
 H         3.340571        -2.843094         1.069645
 H         3.069482        -2.700441        -1.511129
 H         4.479234        -0.031170        -0.560359
 H         4.159168        -0.403635        -2.372911
 H         2.121312         0.098508        -2.982599
