19
Iteration:  4660
 C        -0.034704        -0.008308        -0.005960
 C         1.595745        -0.043933        -0.008867
 O         1.940188         1.320222         0.331898
 C         2.138511        -1.055769         1.055397
 C         2.941566        -1.970485         0.462285
 C         3.138624        -1.751066        -1.038155
 C         3.717293        -0.342402        -1.493941
 C         2.226577        -0.556852        -1.287875
 O         1.431048        -0.497351        -2.391714
 H        -0.631617        -0.853277        -0.515508
 H        -0.289250        -0.046176         1.026942
 H        -0.390174         1.018763        -0.343878
 H         2.840398         1.484041        -0.179598
 H         1.729974        -1.021817         2.095631
 H         3.380367        -2.883033         0.923135
 H         2.940109        -2.560965        -1.719783
 H         4.279234         0.185580        -0.660812
 H         4.073939        -0.164688        -2.544118
 H         0.565024        -0.768737        -2.100963
