19
Iteration:   768charge 0 multiplicity 1
 C         0.006871        -0.135844        -0.005881
 C         1.718022         0.107211        -0.051346
 O         1.830830         1.457749         0.088084
 C         2.164647        -0.984317         1.055708
 C         2.686786        -2.060591         0.556694
 C         3.106712        -1.821338        -0.900152
 C         3.742096        -0.471179        -1.252233
 C         2.307186        -0.517245        -1.330541
 O         1.549220        -0.454497        -2.500267
 H        -0.497667         0.650316         0.607599
 H        -0.550510        -0.235955        -1.007804
 H        -0.061749        -1.086217         0.535415
 H         2.641620         1.795306         0.337102
 H         1.716456        -0.912701         2.060545
 H         2.562597        -3.104416         0.983509
 H         3.307178        -2.751192        -1.505088
 H         4.288594         0.198759        -0.597588
 H         4.212987        -0.764898        -2.280110
 H         0.634807        -0.421682        -2.198995
