19
Iteration:  4608
 C         0.012585         0.105063        -0.024941
 C         1.524416        -0.080932         0.002863
 O         2.058686         1.163225         0.525647
 C         2.082938        -0.992914         0.976087
 C         3.010678        -1.845634         0.435467
 C         3.159185        -1.618324        -1.009532
 C         3.635905        -0.310891        -1.478460
 C         2.147269        -0.559913        -1.370068
 O         1.347755        -0.727283        -2.495561
 H        -0.495043        -0.905932        -0.039911
 H        -0.189831         0.733163         0.793881
 H        -0.290031         0.565161        -1.060847
 H         2.726688         0.840578         1.197740
 H         1.801691        -0.920445         2.038140
 H         3.522039        -2.536053         1.143052
 H         3.303596        -2.558119        -1.598240
 H         4.195790         0.403859        -0.847968
 H         4.085034        -0.302124        -2.480837
 H         1.074242         0.143897        -2.786102
