19
Iteration:  4476charge 0 multiplicity 1
 C         0.052115        -0.235243         0.067611
 C         1.600967        -0.019144         0.034455
 O         1.717768         1.339027         0.363467
 C         2.294377        -0.957855         1.028953
 C         2.988476        -1.909330         0.472240
 C         2.988900        -1.851676        -0.968925
 C         3.698851        -0.607316        -1.484319
 C         2.200200        -0.497856        -1.274902
 O         1.545483        -0.210688        -2.565895
 H        -0.273870        -1.341292        -0.005098
 H        -0.269708         0.165914         1.003172
 H        -0.444618         0.481596        -0.704270
 H         2.296888         1.752938        -0.233199
 H         2.118255        -0.767381         2.096808
 H         3.438659        -2.731047         0.990767
 H         3.139489        -2.653731        -1.611445
 H         4.449976        -0.319763        -0.697940
 H         3.942409        -0.824764        -2.565767
 H         0.619707        -0.055693        -2.318866
