19
Iteration:  1787
 C         0.086239        -0.159910        -0.046790
 C         1.598045        -0.044612         0.041139
 O         2.038015         1.330278         0.239873
 C         2.137217        -0.941786         1.091547
 C         2.876081        -1.930957         0.537167
 C         3.051535        -1.800482        -0.925447
 C         3.708787        -0.507429        -1.424210
 C         2.238019        -0.506889        -1.319287
 O         1.326724        -0.388772        -2.406614
 H        -0.224458         0.672085        -0.693879
 H        -0.206156        -1.098916        -0.622725
 H        -0.387734         0.055017         0.882470
 H         1.519780         1.739264        -0.537327
 H         1.988380        -0.712614         2.157843
 H         3.309910        -2.760848         1.038185
 H         3.014135        -2.610055        -1.631594
 H         4.058027         0.005285        -0.502700
 H         4.149419        -0.633203        -2.355076
 H         1.709757        -0.204195        -3.288949
