19
Iteration:  2467
 C         0.064233        -0.241941         0.085772
 C         1.614164         0.009154        -0.011356
 O         1.866231         1.382673         0.156417
 C         2.289695        -0.863188         1.115563
 C         2.796242        -1.962316         0.551658
 C         2.939388        -1.770010        -0.968201
 C         3.806230        -0.610049        -1.421575
 C         2.226723        -0.508911        -1.294275
 O         1.402874        -0.374834        -2.509246
 H        -0.576651        -0.006182        -0.751037
 H        -0.205067        -1.279252         0.321612
 H        -0.252283         0.362123         0.885927
 H         2.723169         1.550371        -0.134082
 H         2.024993        -0.729884         2.113551
 H         3.341496        -2.697735         1.069377
 H         2.751122        -2.713854        -1.560601
 H         4.349216        -0.364281        -0.544221
 H         4.234225        -0.629672        -2.465170
 H         1.573273         0.564980        -2.768199
