19
Iteration:  3423
 C        -0.004143        -0.062167        -0.142279
 C         1.520865        -0.050070        -0.033442
 O         2.043265         1.318192         0.420386
 C         2.114358        -1.009212         1.031859
 C         3.038345        -1.838674         0.512218
 C         3.082664        -1.677225        -0.980363
 C         3.673456        -0.378600        -1.482251
 C         2.182786        -0.538636        -1.291138
 O         1.375487        -0.700229        -2.434100
 H        -0.241553         0.853957        -0.897016
 H        -0.406134        -1.017320        -0.452273
 H        -0.335757         0.282173         0.869977
 H         1.948934         1.334895         1.452072
 H         1.926497        -0.840870         2.051521
 H         3.761427        -2.508536         1.061060
 H         3.018088        -2.563204        -1.668039
 H         4.210798         0.280759        -0.854167
 H         4.024622        -0.374918        -2.540949
 H         1.210535         0.119171        -2.959294
