19
Iteration:  2008charge 0 multiplicity 1
 C         0.088653        -0.135649        -0.058141
 C         1.598269        -0.084457         0.053929
 O         1.952457         1.380362         0.182847
 C         2.157001        -0.941105         1.069341
 C         2.933491        -1.973310         0.535752
 C         2.960213        -1.784145        -0.912082
 C         3.659468        -0.501902        -1.460234
 C         2.231564        -0.515815        -1.315498
 O         1.351592        -0.341740        -2.389473
 H        -0.068341         0.581004        -0.920854
 H        -0.281723        -1.093534        -0.360962
 H        -0.468303         0.143313         0.920317
 H         2.931488         1.433141         0.492622
 H         2.171764        -0.729555         2.194225
 H         3.460589        -2.792755         1.044209
 H         3.153608        -2.576861        -1.620579
 H         4.284009         0.071237        -0.703293
 H         4.123814        -0.551296        -2.398752
 H         1.389047        -1.046327        -3.078410
