19
Iteration:    46charge 0 multiplicity 1
 C         0.048831        -0.070483         0.026655
 C         1.557384        -0.030924        -0.004250
 O         1.904784         1.321333         0.412452
 C         2.115990        -0.908786         1.040738
 C         2.855721        -1.918313         0.475716
 C         3.085593        -1.762653        -0.999419
 C         3.644617        -0.453555        -1.434843
 C         2.218079        -0.569895        -1.273818
 O         1.545660        -0.508306        -2.524941
 H        -0.248662         0.820566         0.651040
 H        -0.471231         0.077499        -0.928478
 H        -0.345071        -0.900777         0.525309
 H         2.384908         1.703749        -0.302703
 H         1.786531        -0.920230         2.042264
 H         3.346132        -2.614329         1.147542
 H         2.909149        -2.600789        -1.674230
 H         4.291718         0.157075        -0.748705
 H         3.922333        -0.368261        -2.445314
 H         2.017096        -0.977849        -3.211920
