19
Iteration:  3620charge 0 multiplicity 1
 C         0.083193        -0.307364         0.051481
 C         1.608888        -0.012043         0.067509
 O         1.791889         1.433647        -0.034532
 C         2.253988        -0.943171         1.112713
 C         2.821199        -2.041832         0.526114
 C         2.965496        -1.854480        -0.958734
 C         3.724029        -0.465984        -1.333662
 C         2.254590        -0.492622        -1.291576
 O         1.488557        -0.336550        -2.448863
 H        -0.348604         0.606567        -0.642567
 H        -0.058461        -1.265379        -0.421606
 H        -0.348137        -0.438542         1.125759
 H         2.759017         1.708675         0.295825
 H         2.225636        -0.800999         2.239169
 H         3.301593        -2.761106         1.094750
 H         3.220680        -2.696014        -1.565267
 H         4.168151         0.240262        -0.525828
 H         4.066223        -0.499174        -2.338811
 H         1.098758         0.574035        -2.407103
