19
Iteration:   369
 C        -0.025405        -0.128390        -0.102572
 C         1.534679        -0.075958        -0.076543
 O         1.856548         1.351383         0.297397
 C         2.090811        -0.931461         1.051785
 C         2.920345        -1.859066         0.603125
 C         2.966279        -1.809801        -0.919511
 C         3.819726        -0.503963        -1.381939
 C         2.255734        -0.590823        -1.337293
 O         1.496563        -0.390622        -2.463003
 H        -0.613226         0.509670         0.639812
 H        -0.475149         0.328999        -1.018677
 H        -0.393092        -1.143066         0.047020
 H         2.666383         1.336200         0.853955
 H         2.125661        -0.571512         2.138625
 H         3.647947        -2.546882         1.077644
 H         3.061667        -2.586913        -1.664008
 H         4.414397        -0.077617        -0.592812
 H         4.220880        -0.456851        -2.415840
 H         2.054000        -0.557698        -3.242505
