19
Iteration:  2205charge 0 multiplicity 1
 C         0.068528        -0.195022        -0.021503
 C         1.615733         0.089945        -0.021877
 O         1.737230         1.520455         0.396621
 C         2.230753        -0.873831         1.111217
 C         2.976664        -1.866930         0.559479
 C         2.888617        -1.830531        -0.900838
 C         3.703135        -0.783472        -1.590521
 C         2.242942        -0.534304        -1.318149
 O         1.508856        -0.432094        -2.565941
 H        -0.517583         0.316179        -0.783081
 H         0.109059        -1.315552        -0.350648
 H        -0.364345        -0.021188         1.019576
 H         2.485539         1.441371         1.086861
 H         2.138510        -0.679097         2.214672
 H         3.534212        -2.763513         0.920222
 H         2.751685        -2.851114        -1.343807
 H         4.507270        -0.260030        -1.095464
 H         3.900334        -0.937697        -2.704285
 H         1.906986         0.407771        -2.852559
