19
Iteration:  2689
 C         0.067504        -0.142184         0.005404
 C         1.632902         0.049514        -0.004208
 O         1.808340         1.432533         0.348580
 C         2.270401        -0.874856         1.021517
 C         2.813470        -2.000088         0.462316
 C         2.993492        -1.751147        -1.010517
 C         3.808990        -0.592650        -1.430096
 C         2.278876        -0.462413        -1.328610
 O         1.367743        -0.570414        -2.439797
 H        -0.488478         0.191800        -0.837255
 H        -0.125606        -1.210267         0.030353
 H        -0.369080         0.421788         0.874799
 H         2.711930         1.567575         0.517716
 H         1.922856        -0.755389         2.028330
 H         3.416830        -2.690730         1.027425
 H         2.959802        -2.672877        -1.648438
 H         4.418702        -0.070643        -0.715529
 H         4.188019        -0.857986        -2.472532
 H         1.268382         0.379734        -2.717696
