19
Iteration:  2219
 C         0.089514        -0.225539        -0.087218
 C         1.600665         0.028208         0.061382
 O         1.774570         1.459929         0.250118
 C         2.277024        -0.852102         1.102294
 C         2.872733        -1.909649         0.554821
 C         2.921872        -1.866947        -0.938868
 C         3.708014        -0.690140        -1.624822
 C         2.264659        -0.542260        -1.265501
 O         1.526238        -0.395162        -2.402589
 H        -0.399676         0.589367        -0.706062
 H        -0.264346        -1.276581        -0.385671
 H        -0.333035        -0.087438         0.909267
 H         2.555733         1.706552         0.758189
 H         1.977871        -0.821117         2.221280
 H         3.477300        -2.500719         1.310159
 H         2.718861        -2.655482        -1.587083
 H         4.547031        -0.145462        -1.139979
 H         3.832057        -0.861701        -2.646653
 H         1.374633         0.530267        -2.702102
