19
Iteration:  3485charge 0 multiplicity 1
 C         0.042909        -0.091715         0.095440
 C         1.513442         0.014540         0.041778
 O         2.021510         1.311614         0.227093
 C         2.070378        -1.008268         1.058813
 C         2.923774        -1.913247         0.499918
 C         3.072805        -1.685050        -0.952610
 C         3.673895        -0.332165        -1.370379
 C         2.138996        -0.550417        -1.318550
 O         1.500654        -0.665055        -2.529192
 H        -0.586638         0.700043        -0.030947
 H        -0.276663        -0.847069        -0.788344
 H        -0.323767        -0.468964         1.042623
 H         2.692239         1.353018        -0.578573
 H         1.927566        -0.775948         2.106939
 H         3.613357        -2.644607         1.000722
 H         3.144370        -2.508019        -1.636916
 H         4.159724         0.309437        -0.611165
 H         3.948986        -0.145937        -2.391189
 H         1.227895         0.280083        -2.713398
