19
Iteration:  2524
 C         0.020051        -0.150866         0.030752
 C         1.580233        -0.002078         0.072380
 O         1.776783         1.370484         0.269298
 C         2.258589        -0.878004         1.139891
 C         2.977583        -1.843762         0.502548
 C         2.880608        -1.802250        -0.933900
 C         3.703309        -0.692601        -1.525711
 C         2.199371        -0.519137        -1.324524
 O         1.507827        -0.418348        -2.537148
 H        -0.235605         0.670797        -0.729342
 H        -0.290043        -1.097546        -0.262087
 H        -0.484799         0.125341         0.978992
 H         2.701536         1.502064         0.693627
 H         2.418526        -0.457156         2.179812
 H         3.400599        -2.646329         1.176474
 H         2.946776        -2.731619        -1.533940
 H         4.552982        -0.289878        -0.925393
 H         4.029909        -0.918814        -2.485672
 H         2.070851         0.086124        -3.128503
