19
Iteration:  1962charge 0 multiplicity 1
 C         0.063187        -0.001994         0.265619
 C         1.547603        -0.035982        -0.034950
 O         1.859213         1.341381         0.144015
 C         2.147458        -0.982907         0.991696
 C         2.891000        -2.007383         0.506435
 C         3.001164        -1.762013        -1.005993
 C         3.755330        -0.516798        -1.268557
 C         2.195210        -0.536335        -1.325592
 O         1.438530        -0.466658        -2.568569
 H        -0.505082         0.830446        -0.302684
 H        -0.583827        -0.895780         0.135631
 H        -0.052441         0.188595         1.390282
 H         2.830931         1.415031        -0.110207
 H         1.861394        -0.902372         2.025215
 H         3.756168        -2.366378         1.101803
 H         3.027895        -2.611437        -1.673121
 H         4.253327         0.198308        -0.642238
 H         4.375839        -0.510126        -2.247217
 H         2.161999        -0.414115        -3.218684
