19
Iteration:   794
 C         0.065639        -0.108874         0.031632
 C         1.527594        -0.004387        -0.022031
 O         1.803196         1.442181         0.134799
 C         2.129817        -0.914446         1.053108
 C         2.770284        -2.005801         0.560984
 C         2.981327        -1.803937        -0.943944
 C         3.801865        -0.517878        -1.335758
 C         2.267743        -0.525803        -1.268097
 O         1.627277        -0.408951        -2.495670
 H        -0.362065         0.664295         0.648099
 H        -0.170956         0.064937        -1.013435
 H        -0.295090        -1.108762         0.238167
 H         2.721538         1.446353        -0.066897
 H         1.937953        -0.748030         2.118128
 H         3.221137        -2.770290         1.156587
 H         2.761128        -2.684105        -1.505749
 H         4.490243        -0.210793        -0.479777
 H         4.230786        -0.563663        -2.283915
 H         1.160095        -1.224425        -2.734544
