19
Iteration:  4113
 C        -0.006604        -0.181672         0.076672
 C         1.613824        -0.017044         0.023914
 O         1.734317         1.366394         0.243286
 C         2.234163        -1.003168         1.094614
 C         2.948497        -1.982042         0.531157
 C         3.002251        -1.778501        -0.971245
 C         3.763710        -0.533866        -1.430569
 C         2.222268        -0.526515        -1.343808
 O         1.474008        -0.362701        -2.553175
 H        -0.371705        -0.597692        -0.825592
 H        -0.260663        -0.840532         0.975974
 H        -0.361793         0.786733         0.191560
 H         2.609012         1.643384         0.537173
 H         2.130633        -0.631937         2.076760
 H         3.573750        -2.802876         0.969897
 H         3.081322        -2.642432        -1.632287
 H         4.432716         0.017079        -0.795551
 H         4.233570        -0.521109        -2.414231
 H         1.367678         0.612057        -2.682390
