19
Iteration:  2305charge 0 multiplicity 1
 C        -0.034266         0.041502         0.315041
 C         1.529979        -0.043869         0.034733
 O         1.872683         1.393270         0.280047
 C         2.103306        -1.041343         1.031844
 C         2.926199        -1.934172         0.488623
 C         3.000617        -1.772989        -1.000724
 C         3.756374        -0.443717        -1.488598
 C         2.212607        -0.491907        -1.375259
 O         1.555517        -0.641582        -2.621697
 H        -0.411017         0.358139        -0.691485
 H        -0.457835        -1.036181         0.325149
 H        -0.196668         0.661601         1.173672
 H         2.818838         1.507891         0.391764
 H         2.178928        -0.912285         2.140993
 H         3.384102        -2.718712         1.107196
 H         2.959177        -2.675466        -1.562186
 H         4.380419         0.022638        -0.733863
 H         4.009822        -0.417034        -2.523462
 H         1.654372         0.224691        -3.019327
