19
Iteration:  1017
 C        -0.041433        -0.214610         0.038987
 C         1.514932         0.015706         0.051258
 O         1.834839         1.407000         0.285392
 C         2.226249        -0.916943         1.057887
 C         2.719120        -1.979400         0.483539
 C         2.925472        -1.806160        -0.940669
 C         3.873187        -0.568011        -1.393147
 C         2.235635        -0.502093        -1.258832
 O         1.637682        -0.323175        -2.560926
 H        -0.323370        -0.023284        -1.036701
 H        -0.187203        -1.251284         0.385014
 H        -0.453568         0.679720         0.419748
 H         2.629085         1.568501        -0.177683
 H         2.212751        -0.769268         2.135092
 H         3.250265        -2.779818         0.920868
 H         2.952777        -2.628262        -1.652869
 H         4.292166        -0.044468        -0.485899
 H         4.269919        -0.401206        -2.412803
 H         1.470123        -1.211217        -2.933346
