19
Iteration:  3604charge 0 multiplicity 1
 C         0.074711        -0.333367         0.078278
 C         1.606397        -0.052056        -0.019160
 O         1.779936         1.442705         0.037576
 C         2.319398        -0.829249         1.085832
 C         2.884955        -1.965667         0.542238
 C         2.986053        -1.802916        -0.963084
 C         3.712974        -0.560279        -1.288421
 C         2.175717        -0.600915        -1.269240
 O         1.476440        -0.270863        -2.534892
 H        -0.435774         0.270320        -0.547913
 H        -0.044753        -1.407226        -0.283834
 H        -0.233408        -0.043100         1.041329
 H         2.256173         1.570758         0.881585
 H         2.125710        -0.692956         2.125690
 H         3.244753        -2.951986         1.029473
 H         2.925971        -2.722840        -1.624100
 H         4.285724        -0.272453        -0.445374
 H         4.172570        -0.621121        -2.322022
 H         1.588178         0.673644        -2.691314
