19
Iteration:   486
 C        -0.062072        -0.081531        -0.007693
 C         1.508861        -0.046647        -0.048096
 O         1.811302         1.351314         0.137585
 C         2.176212        -0.877071         1.137223
 C         2.926805        -1.907723         0.619700
 C         3.043258        -1.832924        -0.907657
 C         3.737773        -0.555773        -1.418650
 C         2.224276        -0.647760        -1.292981
 O         1.656178        -0.276550        -2.543702
 H        -0.250655        -0.599581         0.944381
 H        -0.243804         0.962950         0.197559
 H        -0.560060        -0.622618        -0.818685
 H         2.797628         1.445758         0.370666
 H         1.621093        -1.096439         2.119245
 H         3.201962        -2.817512         1.215905
 H         3.080189        -2.818437        -1.344577
 H         4.261128         0.113666        -0.663791
 H         4.086224        -0.643256        -2.473366
 H         0.984410        -0.904384        -2.823402
