19
Iteration:  3667charge 0 multiplicity 1
 C        -0.036515        -0.069511        -0.014656
 C         1.512666         0.004091         0.017195
 O         1.904258         1.349485         0.385689
 C         2.120957        -0.969935         1.070856
 C         2.964355        -1.898409         0.490377
 C         3.079246        -1.746100        -0.932900
 C         3.750905        -0.456689        -1.433313
 C         2.237437        -0.560761        -1.389893
 O         1.445352        -0.591524        -2.519247
 H        -0.641561         0.720652        -0.663196
 H        -0.320283        -1.147511        -0.319848
 H        -0.402800        -0.112924         1.073211
 H         2.401472         1.770632        -0.314583
 H         2.109815        -0.763282         2.108551
 H         3.660791        -2.572821         1.126512
 H         3.158781        -2.572612        -1.671093
 H         4.191240         0.043757        -0.600162
 H         4.401737        -0.671320        -2.366490
 H         1.408877         0.350085        -2.708235
