19
Iteration:   202charge 0 multiplicity 1
 C         0.062683        -0.206333        -0.188487
 C         1.606412        -0.025885        -0.032649
 O         1.981926         1.418645         0.075764
 C         2.105213        -1.018139         1.132961
 C         2.876734        -1.983747         0.634161
 C         2.960180        -1.774196        -0.845898
 C         3.644902        -0.473626        -1.423842
 C         2.259856        -0.513711        -1.251701
 O         1.486723        -0.399545        -2.390721
 H        -0.367280        -0.420023         0.770864
 H        -0.198593         0.823515        -0.382562
 H        -0.272715        -1.016985        -0.921760
 H         1.919129         1.583986         1.095086
 H         1.683794        -0.743052         2.110251
 H         3.465313        -2.758538         1.111717
 H         3.080483        -2.522346        -1.590882
 H         4.235403         0.193864        -0.711945
 H         3.908740        -0.722912        -2.423376
 H         1.971626         0.036819        -3.097689
