19
Iteration:  4776
 C         0.099610        -0.321842         0.058271
 C         1.582790        -0.040814         0.001889
 O         1.721257         1.422681         0.297024
 C         2.287407        -0.918071         1.118398
 C         2.868581        -2.036542         0.533325
 C         2.961866        -1.817580        -1.037475
 C         3.725492        -0.649825        -1.499860
 C         2.283926        -0.451982        -1.271382
 O         1.516895        -0.222475        -2.529712
 H        -0.084797        -1.393049        -0.011689
 H        -0.305926         0.222798         1.037722
 H        -0.370187         0.135646        -0.801386
 H         2.698034         1.696125         0.008266
 H         2.311686        -0.455790         2.177700
 H         3.420826        -2.856026         1.091217
 H         2.868316        -2.716984        -1.609057
 H         4.439504        -0.016689        -0.950394
 H         3.816747        -0.486135        -2.570381
 H         0.790753         0.321651        -2.271811
