19
Iteration:  3482charge 0 multiplicity 1
 C         0.023181        -0.062112         0.135369
 C         1.522959         0.018373         0.042141
 O         2.009227         1.296832         0.215420
 C         2.048268        -1.008585         1.028009
 C         2.949236        -1.943004         0.506606
 C         3.060517        -1.674225        -0.959292
 C         3.652898        -0.309754        -1.392870
 C         2.162513        -0.559543        -1.318778
 O         1.521494        -0.669582        -2.522806
 H        -0.567759         0.867258        -0.106730
 H        -0.218750        -0.779578        -0.741067
 H        -0.357862        -0.591927         1.088087
 H         2.731192         1.308891        -0.376392
 H         1.902516        -0.749575         2.132458
 H         3.635437        -2.595573         0.982425
 H         3.219745        -2.535441        -1.538128
 H         4.087432         0.345537        -0.520343
 H         3.888783        -0.249235        -2.449843
 H         1.268663         0.210834        -2.829179
