19
Iteration:   557
 C         0.058179        -0.103881        -0.182547
 C         1.561803        -0.055841         0.040180
 O         1.987180         1.387046         0.380647
 C         2.080921        -0.980940         1.070876
 C         2.817051        -1.938612         0.544160
 C         3.122174        -1.759500        -0.832998
 C         3.691811        -0.488116        -1.395285
 C         2.233477        -0.557357        -1.333295
 O         1.495067        -0.424806        -2.542586
 H        -0.354882         0.661748         0.527125
 H        -0.224424         0.212887        -1.216646
 H        -0.349575        -1.099110         0.174433
 H         1.729850         2.001559        -0.343526
 H         1.901181        -0.813822         2.149918
 H         3.439534        -2.660449         1.132944
 H         3.335190        -2.637548        -1.509688
 H         4.243529         0.075285        -0.729922
 H         3.993842        -0.597756        -2.461148
 H         0.906712        -1.113264        -2.840727
