19
Iteration:  2926
 C         0.093466        -0.202313        -0.011026
 C         1.638128         0.035821        -0.016572
 O         1.871208         1.475032         0.345406
 C         2.154225        -0.949438         1.028247
 C         2.795362        -2.000923         0.469691
 C         3.059696        -1.710023        -0.920341
 C         3.785728        -0.381775        -1.461876
 C         2.280109        -0.547594        -1.295623
 O         1.393633        -0.665549        -2.443305
 H        -0.557713         0.614900        -0.450724
 H        -0.079278        -1.175571        -0.486074
 H        -0.120159        -0.127313         1.115067
 H         2.490429         1.862852        -0.385716
 H         1.893468        -0.678850         2.038207
 H         3.036586        -2.975632         0.917099
 H         2.955995        -2.587251        -1.642114
 H         4.339782         0.196567        -0.696576
 H         4.236760        -0.386679        -2.427244
 H         1.000710         0.186034        -2.702563
