19
Iteration:  3418charge 0 multiplicity 1
 C         0.016396        -0.062348        -0.173070
 C         1.556677        -0.070444        -0.034443
 O         2.063131         1.295289         0.421146
 C         2.103246        -0.986586         1.062576
 C         3.033728        -1.835086         0.486534
 C         3.069186        -1.662158        -0.952585
 C         3.693174        -0.401709        -1.502739
 C         2.140141        -0.519594        -1.278412
 O         1.373420        -0.695013        -2.420383
 H        -0.340285         0.572727        -0.889657
 H        -0.257048        -1.119504        -0.476697
 H        -0.464716         0.339526         0.714336
 H         1.947223         1.409866         1.339747
 H         1.855017        -0.862088         2.167081
 H         3.680645        -2.547002         0.950510
 H         2.977966        -2.492936        -1.615363
 H         4.266143         0.337153        -0.880459
 H         3.918848        -0.136632        -2.534165
 H         1.200890         0.147235        -2.861899
