19
Iteration:  3118
 C        -0.022423        -0.050836        -0.044969
 C         1.482282        -0.096539         0.066312
 O         1.972060         1.186521         0.506318
 C         2.119346        -0.980340         1.127394
 C         3.051021        -1.679043         0.556968
 C         3.063555        -1.680285        -0.913438
 C         3.773576        -0.553246        -1.585990
 C         2.187078        -0.506095        -1.363175
 O         1.372211        -0.580624        -2.572155
 H        -0.266285         0.626356        -0.974299
 H        -0.371973        -1.006240        -0.295816
 H        -0.438096         0.425562         0.815270
 H         1.822674         1.960620         0.012999
 H         1.973964        -0.800997         2.207225
 H         3.849422        -2.312456         0.962006
 H         2.910155        -2.718149        -1.410512
 H         4.442282         0.192930        -1.236885
 H         3.838543        -0.511624        -2.721572
 H         1.989648        -0.196085        -3.190968
