19
Iteration:  2902
 C         0.009998        -0.097587         0.166705
 C         1.484704        -0.006678         0.047399
 O         1.943412         1.407327         0.231421
 C         2.157065        -0.962231         1.058159
 C         2.893153        -1.935936         0.425223
 C         3.131294        -1.725074        -1.039994
 C         3.688946        -0.393020        -1.264539
 C         2.210300        -0.562930        -1.389620
 O         1.474820        -0.661073        -2.531870
 H        -0.570810         0.686392        -0.468208
 H        -0.309684        -1.047346        -0.120030
 H        -0.295517         0.233715         1.189304
 H         2.634351         1.479910        -0.451718
 H         1.867925        -0.899201         2.100062
 H         3.308382        -2.815058         0.955809
 H         3.376693        -2.565285        -1.745410
 H         4.202375         0.119462        -0.389277
 H         4.217189        -0.294850        -2.174808
 H         1.086498         0.167611        -2.913529
