19
Iteration:  1092charge 0 multiplicity 1
 C        -0.029290        -0.153027        -0.093880
 C         1.585843        -0.076786         0.035716
 O         1.857530         1.339040         0.143595
 C         2.189838        -0.935949         1.106415
 C         2.808320        -1.998647         0.534373
 C         2.985873        -1.753265        -0.933796
 C         3.790685        -0.434719        -1.351933
 C         2.253909        -0.550211        -1.288942
 O         1.549088        -0.422996        -2.416410
 H        -0.410191         0.682794        -0.712682
 H        -0.225363        -1.059583        -0.673409
 H        -0.457517        -0.071294         0.884191
 H         2.817757         1.457127        -0.236215
 H         1.971105        -0.896818         2.146504
 H         3.249802        -2.789758         1.069932
 H         2.714279        -2.569822        -1.595948
 H         4.357316         0.122794        -0.561741
 H         4.227535        -0.433297        -2.393861
 H         1.341238         0.539445        -2.438277
