19
Iteration:  4207
 C         0.016408        -0.289569        -0.031977
 C         1.587032        -0.049411         0.104194
 O         1.731033         1.442827         0.164340
 C         2.305938        -0.937628         1.068286
 C         2.892577        -2.007588         0.479523
 C         3.015887        -1.829789        -1.009890
 C         3.715451        -0.636126        -1.494620
 C         2.249613        -0.476952        -1.205599
 O         1.495187        -0.215074        -2.372842
 H        -0.416002        -1.306289         0.380440
 H        -0.512586         0.551089         0.378204
 H        -0.216191        -0.482741        -1.171028
 H         2.637980         1.603431         0.562609
 H         2.295818        -0.682431         2.089814
 H         3.529843        -2.766490         0.967319
 H         2.861407        -2.749254        -1.581396
 H         4.628310        -0.183415        -0.963068
 H         4.073739        -0.771644        -2.564099
 H         1.211001         0.687725        -2.462925
