19
Iteration:  3192charge 0 multiplicity 1
 C         0.037527        -0.078647         0.094681
 C         1.570312        -0.038696        -0.009945
 O         2.028870         1.348394         0.168210
 C         2.137583        -0.972375         1.037062
 C         2.902920        -1.995523         0.494400
 C         3.054556        -1.726413        -0.930864
 C         3.702431        -0.328693        -1.323342
 C         2.166994        -0.539445        -1.307212
 O         1.481784        -0.630934        -2.531181
 H        -0.612871         0.750287        -0.373392
 H        -0.298545        -1.140982        -0.214106
 H        -0.059641        -0.011010         1.164122
 H         1.283934         2.011400        -0.060306
 H         1.917883        -1.032316         2.123186
 H         3.304807        -2.846524         1.079681
 H         3.260184        -2.594789        -1.688904
 H         4.200238         0.298349        -0.585984
 H         4.044444        -0.192688        -2.383654
 H         1.047296         0.237028        -2.699041
