19
Iteration:  3570charge 0 multiplicity 1
 C        -0.020186        -0.318211         0.071511
 C         1.523014         0.008761         0.014243
 O         1.795238         1.444841         0.265221
 C         2.255588        -0.890814         1.117006
 C         2.930657        -1.877953         0.539786
 C         2.940359        -1.793485        -0.979105
 C         3.777244        -0.680083        -1.496136
 C         2.229902        -0.464955        -1.292640
 O         1.565006        -0.342535        -2.561108
 H        -0.394504        -0.030437        -0.863430
 H        -0.267097        -1.372076         0.320555
 H        -0.457186         0.127428         0.956645
 H         1.276021         1.582955         1.019516
 H         2.280662        -0.488346         2.104400
 H         3.720348        -2.547561         1.011916
 H         2.679760        -2.643031        -1.591920
 H         4.710813        -0.446483        -0.974497
 H         3.970458        -0.882200        -2.582678
 H         2.190295         0.084785        -3.149107
