19
Iteration:  1162
 C        -0.065079         0.019452        -0.056820
 C         1.539219        -0.075379        -0.012217
 O         1.809993         1.350365         0.382547
 C         2.064444        -0.993609         1.030773
 C         2.966801        -1.825541         0.567763
 C         3.090932        -1.775507        -0.913788
 C         3.704487        -0.605883        -1.528084
 C         2.258578        -0.519307        -1.296038
 O         1.567418        -0.520444        -2.516443
 H        -0.397017         0.709873        -0.851583
 H        -0.301884        -0.987047        -0.414573
 H        -0.354178         0.364571         0.975704
 H         2.612269         1.321434         0.985615
 H         1.744590        -0.901441         2.098170
 H         3.654715        -2.503424         1.154268
 H         2.882826        -2.562816        -1.640472
 H         4.332583         0.019779        -0.846776
 H         4.143492        -0.716222        -2.475591
 H         2.039557         0.092649        -3.123170
