19
Iteration:  1861
 C        -0.013091        -0.076162         0.141423
 C         1.562794        -0.043985        -0.020080
 O         1.850577         1.426923         0.207750
 C         2.146581        -0.926666         1.036548
 C         2.954950        -1.940567         0.522449
 C         3.059748        -1.892366        -0.945688
 C         3.666242        -0.604670        -1.486799
 C         2.242635        -0.520551        -1.288310
 O         1.490394        -0.424890        -2.498559
 H        -0.373137         0.869475        -0.278724
 H        -0.491849        -0.807949        -0.625987
 H        -0.348910        -0.313211         1.158179
 H         2.680955         1.585913         0.603528
 H         2.126421        -0.798074         2.148223
 H         3.362671        -2.639544         1.260976
 H         3.002664        -2.738310        -1.648316
 H         4.259029         0.076056        -0.776554
 H         4.008763        -0.632859        -2.482956
 H         1.988115         0.234918        -3.007387
