19
Iteration:  2441charge 0 multiplicity 1
 C         0.108389        -0.092796         0.317357
 C         1.552254         0.016071         0.066946
 O         1.822522         1.469995         0.132816
 C         2.263179        -0.911749         0.980663
 C         2.821462        -2.014939         0.421901
 C         2.884829        -1.845337        -1.007826
 C         3.649138        -0.496547        -1.335335
 C         2.156152        -0.589092        -1.232189
 O         1.700755        -0.531830        -2.653242
 H        -0.494129         0.493904        -0.373320
 H        -0.328743        -1.059677        -0.011076
 H        -0.218385         0.242469         1.356320
 H         2.733695         1.584241        -0.000587
 H         2.036611        -0.823242         2.134053
 H         3.551552        -2.669318         1.029839
 H         3.015750        -2.667861        -1.645942
 H         4.138071         0.013760        -0.446981
 H         3.851764        -0.451657        -2.381736
 H         1.232713         0.346565        -2.667349
