19
Iteration:  1210charge 0 multiplicity 1
 C         0.030276        -0.119307        -0.073963
 C         1.573483        -0.059453        -0.082406
 O         1.979393         1.262534         0.195338
 C         2.132343        -0.933514         0.989413
 C         2.742256        -2.038918         0.543758
 C         2.980523        -1.738685        -0.942178
 C         3.811334        -0.271455        -1.219790
 C         2.225332        -0.555742        -1.290736
 O         1.484254        -0.520064        -2.420288
 H        -0.361389         0.401914        -0.963504
 H        -0.308076        -1.156159        -0.093909
 H        -0.070289         0.573617         0.797130
 H         2.636430         1.474376        -0.552242
 H         1.994378        -0.675144         2.044410
 H         3.105740        -2.854666         1.133092
 H         3.207166        -2.491719        -1.696534
 H         4.220622         0.169225        -0.349011
 H         4.477942        -0.112593        -2.155968
 H         0.846221         0.197133        -2.435515
