19
Iteration:  4392charge 0 multiplicity 1
 C         0.108498        -0.198855         0.148058
 C         1.553197        -0.041708        -0.040213
 O         1.811049         1.372281         0.281696
 C         2.237167        -0.957431         0.994351
 C         2.920571        -1.970795         0.435728
 C         2.999426        -1.754359        -1.021530
 C         3.743023        -0.525624        -1.394142
 C         2.238572        -0.458681        -1.310250
 O         1.401374        -0.426914        -2.492854
 H        -0.246498        -1.232884        -0.100805
 H        -0.187752        -0.007649         1.172262
 H        -0.451162         0.555587        -0.508545
 H         2.246633         1.405176         1.219175
 H         2.032744        -0.879267         2.051578
 H         3.363681        -2.778126         0.962624
 H         3.068547        -2.480880        -1.769095
 H         4.245782         0.183856        -0.731357
 H         4.234529        -0.447620        -2.372170
 H         1.796736         0.255736        -3.078892
