19
Iteration:  3097
 C        -0.073800        -0.091687        -0.064645
 C         1.484635        -0.047883         0.041663
 O         1.995447         1.320050         0.485690
 C         2.180070        -0.981030         1.030070
 C         3.103667        -1.745653         0.564599
 C         3.013961        -1.767547        -0.952471
 C         3.612686        -0.489810        -1.594071
 C         2.180467        -0.571837        -1.312333
 O         1.490122        -0.569922        -2.485297
 H        -0.529851         0.734337        -0.757567
 H        -0.297993        -0.996479        -0.489523
 H        -0.446357         0.147343         0.920528
 H         1.623892         1.982411        -0.159165
 H         1.953864        -0.974401         2.120765
 H         3.756009        -2.343231         1.214912
 H         2.973781        -2.745758        -1.562303
 H         4.349424        -0.088440        -0.918381
 H         3.939783        -0.687960        -2.707366
 H         2.005074         0.118893        -2.993199
