19
Iteration:  4483charge 0 multiplicity 1
 C         0.032547        -0.208991         0.034542
 C         1.591618        -0.026019         0.032628
 O         1.713567         1.347749         0.400957
 C         2.312158        -0.928645         1.036787
 C         2.997644        -1.952892         0.529636
 C         2.961366        -1.834815        -0.970045
 C         3.654775        -0.564852        -1.519741
 C         2.238108        -0.508881        -1.310906
 O         1.577805        -0.238755        -2.557434
 H        -0.242669        -1.252250        -0.093524
 H        -0.258112         0.015739         1.199508
 H        -0.369177         0.555683        -0.566171
 H         2.451128         1.649139        -0.235765
 H         2.114177        -0.856811         2.047574
 H         3.287630        -2.806220         1.079315
 H         3.027041        -2.630122        -1.723084
 H         4.508553        -0.242060        -0.928116
 H         3.823489        -0.609851        -2.561374
 H         0.653813        -0.444812        -2.490603
