19
Iteration:  2888
 C        -0.002375        -0.009888         0.172787
 C         1.545041        -0.095409        -0.019895
 O         1.916019         1.294924         0.163641
 C         2.132989        -1.059209         1.022535
 C         2.955222        -1.943954         0.503410
 C         2.997053        -1.691381        -0.956784
 C         3.725353        -0.292509        -1.315114
 C         2.129314        -0.567510        -1.262666
 O         1.513630        -0.627443        -2.597106
 H        -0.476048         0.634710        -0.534509
 H        -0.577699        -0.991854         0.139387
 H        -0.165012         0.391665         1.146412
 H         2.801738         1.427506        -0.223565
 H         2.266418        -0.762611         2.096672
 H         3.702023        -2.540584         1.007535
 H         3.071805        -2.461587        -1.638715
 H         4.156186         0.181533        -0.466794
 H         4.213844        -0.162310        -2.368611
 H         1.449471         0.318098        -2.743676
