19
Iteration:  1824
 C         0.013597        -0.147548         0.190848
 C         1.577835         0.002995         0.043377
 O         1.931556         1.419450         0.241198
 C         2.164698        -0.904392         1.030582
 C         2.834230        -1.981546         0.460590
 C         2.998180        -1.807021        -1.005453
 C         3.660770        -0.506181        -1.323566
 C         2.217089        -0.507708        -1.363789
 O         1.501781        -0.504458        -2.547308
 H        -0.335442         0.897563         0.044790
 H        -0.447772        -0.794769        -0.518054
 H        -0.347338        -0.544975         1.177800
 H         2.543111         1.612730        -0.469009
 H         2.266207        -0.593032         2.077680
 H         3.341571        -2.717922         1.153926
 H         2.884819        -2.677699        -1.661314
 H         4.154839         0.037343        -0.553191
 H         4.410344        -0.387068        -2.197929
 H         2.106875        -0.444042        -3.331274
