19
Iteration:  3294
 C         0.137923        -0.390111         0.048186
 C         1.607346         0.042032        -0.006079
 O         1.851245         1.367619         0.119910
 C         2.229397        -0.805754         1.081731
 C         2.858228        -1.950746         0.550819
 C         2.940122        -1.820423        -0.906738
 C         3.803489        -0.586462        -1.419456
 C         2.234273        -0.470190        -1.353612
 O         1.401967        -0.350702        -2.491584
 H        -0.489388         0.338293        -0.614313
 H         0.063858        -1.374128        -0.276779
 H        -0.036662        -0.290241         1.135513
 H         1.642266         1.824986         0.886469
 H         2.085961        -0.572082         2.154390
 H         3.322241        -2.877594         1.087794
 H         2.893873        -2.629436        -1.615220
 H         4.309994        -0.013623        -0.572690
 H         4.213173        -0.696301        -2.389467
 H         1.327426         0.612484        -2.581827
