19
Iteration:  3930charge 0 multiplicity 1
 C        -0.035567        -0.207462         0.215564
 C         1.495770         0.005090         0.084053
 O         1.860128         1.406236         0.126844
 C         2.207614        -0.935685         1.061173
 C         2.964160        -1.954226         0.468824
 C         3.001736        -1.814078        -1.058646
 C         3.796858        -0.521516        -1.412013
 C         2.285702        -0.523828        -1.273678
 O         1.497046        -0.400824        -2.523828
 H        -0.735666         0.514477        -0.147660
 H        -0.343601        -1.291867        -0.166205
 H        -0.291207        -0.287790         1.259719
 H         1.069427         2.023888         0.350763
 H         2.160870        -0.836246         2.123445
 H         3.515508        -2.816726         0.921711
 H         2.920127        -2.755630        -1.667557
 H         4.422384        -0.123698        -0.714482
 H         4.065839        -0.581981        -2.440425
 H         2.024950         0.303684        -2.981220
