19
Iteration:  1769charge 0 multiplicity 1
 C         0.066319        -0.104023        -0.177413
 C         1.606546        -0.010690         0.041360
 O         2.005409         1.320418         0.254788
 C         2.158669        -1.035503         1.140571
 C         2.934478        -1.914061         0.591445
 C         2.966015        -1.769547        -0.947575
 C         3.732583        -0.512844        -1.517776
 C         2.215453        -0.574935        -1.259396
 O         1.369035        -0.368766        -2.360758
 H        -0.339285         0.284217        -1.143093
 H        -0.282202        -1.115673        -0.155618
 H        -0.434802         0.372043         0.711074
 H         1.321673         2.051934         0.075902
 H         1.827354        -0.927417         2.129152
 H         3.564389        -2.654751         1.207290
 H         2.958148        -2.724250        -1.503510
 H         4.471958         0.128112        -1.073974
 H         3.876413        -0.668537        -2.723713
 H         2.002367        -0.102921        -3.054028
