19
Iteration:   823charge 0 multiplicity 1
 C        -0.033369        -0.091152        -0.101224
 C         1.450139        -0.042661        -0.030192
 O         1.900121         1.377492         0.311989
 C         2.172088        -0.862093         1.139850
 C         2.972303        -1.806809         0.609156
 C         2.942635        -1.891319        -0.895487
 C         3.700631        -0.651051        -1.336433
 C         2.175861        -0.616620        -1.342467
 O         1.632639        -0.314494        -2.598239
 H        -0.465496         0.188504         0.902327
 H        -0.381665         0.676738        -0.878647
 H        -0.445592        -0.963377        -0.541848
 H         2.611264         1.506846        -0.318782
 H         2.074498        -0.641314         2.215448
 H         3.701765        -2.454467         1.142772
 H         2.932890        -2.925965        -1.305210
 H         4.319022        -0.201939        -0.495409
 H         4.147812        -0.723320        -2.306717
 H         1.530645        -1.108509        -3.132223
