19
Iteration:  3949
 C        -0.000750        -0.223475         0.065919
 C         1.579817        -0.060605         0.028360
 O         1.985049         1.327210         0.147541
 C         2.225656        -0.939024         1.105717
 C         2.943513        -1.883734         0.493170
 C         3.021536        -1.726146        -0.975341
 C         3.724530        -0.489296        -1.388354
 C         2.175552        -0.545884        -1.335340
 O         1.383026        -0.433518        -2.463765
 H        -0.348211         0.830655        -0.120619
 H        -0.291288        -0.837806        -0.754228
 H        -0.393061        -0.636427         0.979261
 H         1.285707         1.742943         0.705765
 H         2.068309        -0.911804         2.183868
 H         3.471223        -2.570785         1.043186
 H         3.147932        -2.570829        -1.657259
 H         4.259147         0.105655        -0.561146
 H         4.202631        -0.372086        -2.361315
 H         1.786350         0.146495        -3.115279
