19
Iteration:  1275charge 0 multiplicity 1
 C        -0.052703        -0.067897        -0.033837
 C         1.487005        -0.066433         0.018469
 O         1.791683         1.364744         0.271425
 C         2.178775        -0.870320         1.075923
 C         2.893646        -1.870876         0.519484
 C         2.993295        -1.842852        -0.986249
 C         3.790873        -0.654630        -1.437035
 C         2.239631        -0.554948        -1.291554
 O         1.607406        -0.434127        -2.506429
 H        -0.553594         0.777892        -0.547995
 H        -0.536636        -0.994976        -0.437403
 H        -0.478743         0.055436         1.009198
 H         2.534493         1.401746         0.830271
 H         2.281550        -0.613664         2.182591
 H         3.537165        -2.421050         1.270661
 H         3.006715        -2.729424        -1.644439
 H         4.340156        -0.177760        -0.640408
 H         4.369837        -0.604366        -2.395347
 H         1.855787         0.358529        -3.037781
