19
Iteration:   580
 C        -0.081323         0.000925        -0.113864
 C         1.488425        -0.075366         0.045942
 O         2.029916         1.197109         0.214351
 C         1.996826        -1.043011         1.062417
 C         3.015312        -1.791832         0.641646
 C         3.037677        -1.797550        -0.935469
 C         3.756385        -0.462238        -1.431482
 C         2.277256        -0.563305        -1.288434
 O         1.629477        -0.414291        -2.494287
 H        -0.442772         0.825582         0.531262
 H        -0.622002         0.152626        -1.054502
 H        -0.520677        -0.872950         0.525187
 H         1.437346         1.903535         0.027995
 H         1.587178        -0.999594         2.137002
 H         3.399972        -2.616200         1.307526
 H         3.023483        -2.529546        -1.761469
 H         4.296291         0.132867        -0.708616
 H         3.867364        -0.268756        -2.490645
 H         0.674882        -0.659668        -2.588127
