19
Iteration:  2767charge 0 multiplicity 1
 C         0.080394        -0.129655         0.202901
 C         1.552374        -0.083401         0.026521
 O         1.750102         1.312564         0.165863
 C         2.233125        -0.868320         0.993079
 C         2.888874        -1.868796         0.513709
 C         2.904493        -1.807798        -0.995821
 C         3.810711        -0.585316        -1.404662
 C         2.209669        -0.558241        -1.349341
 O         1.509710        -0.385465        -2.522937
 H        -0.268089         0.837765         0.161273
 H        -0.447953        -0.738429        -0.587185
 H        -0.084827        -0.448202         1.220216
 H         2.762042         1.421628         0.231062
 H         2.045326        -0.784166         2.056325
 H         3.524401        -2.464024         1.216908
 H         3.044377        -2.773599        -1.573137
 H         4.401420        -0.190006        -0.503526
 H         4.260097        -0.628252        -2.357518
 H         1.553833         0.560541        -2.781439
