19
Iteration:  3125charge 0 multiplicity 1
 C         0.004828        -0.050473        -0.079577
 C         1.482953        -0.083043        -0.031775
 O         1.991247         1.225671         0.545963
 C         2.112637        -0.982184         1.122058
 C         3.032035        -1.775409         0.573198
 C         3.072932        -1.678974        -0.923142
 C         3.752075        -0.489839        -1.593233
 C         2.236774        -0.514942        -1.380233
 O         1.332173        -0.585302        -2.535733
 H        -0.303438         0.578736        -0.895649
 H        -0.558381        -1.098082        -0.162472
 H        -0.278802         0.481180         0.848257
 H         1.691613         1.799085        -0.153412
 H         2.102036        -0.774574         2.170599
 H         3.819706        -2.140548         1.280300
 H         3.111896        -2.645361        -1.437465
 H         4.398888         0.150857        -0.903919
 H         3.831207        -0.701525        -2.613459
 H         1.792343        -0.197679        -3.316182
