19
Iteration:  3365charge 0 multiplicity 1
 C         0.057850        -0.086985         0.125823
 C         1.539149        -0.017156        -0.008105
 O         1.940986         1.285153         0.171452
 C         2.176315        -0.999506         1.012432
 C         2.953249        -1.913357         0.500094
 C         3.127880        -1.801745        -0.986513
 C         3.701929        -0.354109        -1.363581
 C         2.169209        -0.568909        -1.327627
 O         1.413891        -0.490661        -2.481922
 H        -0.488225         0.366190        -0.664978
 H        -0.322287        -1.247531         0.066489
 H        -0.250370         0.317300         1.103309
 H         1.335236         1.762688         0.682821
 H         1.827232        -0.970526         2.079542
 H         3.363404        -2.743021         1.017514
 H         3.229155        -2.564222        -1.727748
 H         4.174976         0.147772        -0.499696
 H         4.181532        -0.369628        -2.339488
 H         1.683561         0.295448        -2.971028
