19
Iteration:  1631charge 0 multiplicity 1
 C        -0.044659        -0.086793        -0.147785
 C         1.511568        -0.014147        -0.003576
 O         1.982155         1.322498         0.387756
 C         2.195562        -0.878158         1.087991
 C         2.943288        -1.902350         0.546759
 C         2.999637        -1.833980        -0.971994
 C         3.651671        -0.602133        -1.428871
 C         2.200724        -0.573199        -1.246511
 O         1.505323        -0.398414        -2.451271
 H        -0.517895         0.858329        -0.551975
 H        -0.193690        -0.881267        -0.847694
 H        -0.495036        -0.442107         0.857859
 H         2.035483         1.924366        -0.328038
 H         2.025322        -0.735123         2.104130
 H         3.707268        -2.373385         1.195357
 H         2.838909        -2.707414        -1.621144
 H         4.290773        -0.011030        -0.889793
 H         3.954191        -0.591096        -2.535934
 H         2.175049        -0.328434        -3.167722
