19
Iteration:  4396charge 0 multiplicity 1
 C         0.126556        -0.207552         0.148510
 C         1.586342        -0.045775        -0.043529
 O         1.796353         1.389723         0.266488
 C         2.256397        -1.000917         0.986635
 C         2.911296        -1.970804         0.466004
 C         2.980385        -1.767566        -0.983797
 C         3.719571        -0.482423        -1.395977
 C         2.252822        -0.459941        -1.350699
 O         1.403834        -0.402038        -2.489493
 H        -0.232158        -1.188226        -0.108893
 H        -0.241205         0.095460         1.265798
 H        -0.464971         0.386455        -0.514145
 H         2.206198         1.413135         1.101021
 H         2.044202        -0.865647         2.078727
 H         3.352908        -2.905211         0.921197
 H         3.041388        -2.569795        -1.794264
 H         4.219714         0.098663        -0.642805
 H         4.162520        -0.478206        -2.383123
 H         1.816664         0.243558        -3.071185
