19
Iteration:  1306charge 0 multiplicity 1
 C         0.114223        -0.185461        -0.262453
 C         1.595622        -0.010443         0.013582
 O         1.864271         1.396223         0.292770
 C         2.179644        -0.933091         1.128240
 C         2.957518        -1.879764         0.636689
 C         2.956029        -1.854702        -0.916260
 C         3.649474        -0.665875        -1.455252
 C         2.263156        -0.493381        -1.339155
 O         1.427680        -0.362082        -2.472989
 H        -0.332013         0.410152        -1.053882
 H        -0.100373        -1.192802        -0.572208
 H        -0.327961         0.067745         0.755023
 H         2.113306         1.513232         1.279193
 H         1.943334        -0.689886         2.193596
 H         3.548751        -2.440085         1.376180
 H         2.966812        -2.802614        -1.460061
 H         4.204036        -0.134244        -0.763884
 H         4.175376        -0.663858        -2.416674
 H         1.659939         0.470631        -2.904861
