19
Iteration:   611
 C        -0.056690         0.053579         0.031125
 C         1.502060        -0.031571        -0.009933
 O         1.986237         1.267723         0.177794
 C         2.043828        -0.991731         0.975448
 C         2.937822        -1.929642         0.579329
 C         3.075796        -1.773879        -0.895438
 C         3.700617        -0.439842        -1.244338
 C         2.234908        -0.668405        -1.351281
 O         1.602706        -0.460700        -2.618372
 H        -0.306498         0.716995         0.906222
 H        -0.415734         0.425525        -0.949569
 H        -0.323353        -1.037963         0.095989
 H         1.507098         1.673241         0.965150
 H         1.971749        -0.733882         2.084633
 H         3.604393        -2.480648         1.308547
 H         3.479472        -2.485032        -1.650878
 H         3.976771         0.351184        -0.609638
 H         4.275286        -0.498463        -2.172825
 H         0.672394        -0.662027        -2.743211
