19
Iteration:  4640charge 0 multiplicity 1
 C         0.097209         0.065440        -0.002822
 C         1.597175        -0.017007         0.127052
 O         1.957738         1.330502         0.427640
 C         2.077680        -1.133385         0.990865
 C         2.930797        -1.930463         0.405790
 C         3.128248        -1.658667        -1.002138
 C         3.650900        -0.338282        -1.500169
 C         2.137832        -0.500686        -1.281865
 O         1.441507        -0.691444        -2.510827
 H        -0.282822        -0.937892        -0.433099
 H        -0.550686         0.166511         0.839531
 H        -0.204641         0.976423        -0.703755
 H         2.943381         1.303580         0.297016
 H         1.879879        -1.119751         2.068814
 H         3.436128        -2.715251         1.028074
 H         3.416156        -2.514003        -1.656522
 H         4.297957         0.362087        -0.901700
 H         3.821705        -0.390263        -2.582692
 H         0.532869        -0.395113        -2.245078
