19
Iteration:  3399
 C         0.044876        -0.182122        -0.177889
 C         1.528633        -0.002649         0.110698
 O         2.134859         1.266820         0.325266
 C         2.077452        -0.983730         1.130350
 C         2.968096        -1.862106         0.500123
 C         3.059482        -1.684895        -0.987229
 C         3.648731        -0.316486        -1.550198
 C         2.211743        -0.492435        -1.280592
 O         1.343623        -0.614862        -2.409086
 H        -0.089318         0.175940        -1.242149
 H        -0.007380        -1.347772        -0.178190
 H        -0.656721         0.346374         0.469786
 H         1.815722         1.763922         1.100396
 H         1.844551        -1.113055         2.210534
 H         3.427752        -2.684006         1.113173
 H         3.099076        -2.491650        -1.631097
 H         4.375312         0.282081        -0.961662
 H         4.126270        -0.493265        -2.442552
 H         1.060088         0.228501        -2.819489
