19
Iteration:    89charge 0 multiplicity 1
 C         0.095978        -0.120794        -0.140519
 C         1.561846        -0.086080        -0.044554
 O         2.031941         1.322951         0.136396
 C         2.122034        -0.900234         1.055618
 C         2.894209        -1.927426         0.510222
 C         3.106149        -1.805291        -0.949965
 C         3.747423        -0.506948        -1.290068
 C         2.186455        -0.550463        -1.273933
 O         1.307395        -0.425334        -2.375221
 H        -0.358573         0.371644         0.761918
 H        -0.218219         0.506645        -0.982801
 H        -0.294224        -1.093162        -0.137484
 H         1.444290         1.699641         0.775248
 H         1.720016        -0.912046         2.059117
 H         3.403379        -2.720193         1.089892
 H         3.248674        -2.742463        -1.519200
 H         4.207326        -0.006639        -0.412141
 H         4.291136        -0.211223        -2.145092
 H         1.673989         0.317908        -2.858504
