19
Iteration:  4286
 C        -0.033839         0.066887         0.073161
 C         1.580638        -0.062349         0.050304
 O         1.983669         1.255594         0.416391
 C         1.951331        -1.152374         1.004160
 C         2.971102        -1.891187         0.398388
 C         3.110516        -1.624017        -1.082015
 C         3.724995        -0.242610        -1.436076
 C         2.190463        -0.490994        -1.313747
 O         1.468841        -0.765401        -2.431374
 H        -0.499262        -0.790195         0.421573
 H        -0.105093         1.054835         0.674116
 H        -0.204468         0.290025        -0.908107
 H         2.823306         1.347798        -0.208071
 H         1.750620        -1.368888         2.070109
 H         3.457806        -2.688123         0.933140
 H         3.200406        -2.387643        -1.825722
 H         4.145183         0.293763        -0.632840
 H         4.074437        -0.068890        -2.422889
 H         1.286670         0.029523        -2.966460
