19
Iteration:   134
 C        -0.013987        -0.128008         0.058021
 C         1.556535         0.001602         0.059379
 O         1.857808         1.403224         0.271160
 C         2.132522        -0.904208         1.152254
 C         2.888347        -1.885125         0.547479
 C         2.970791        -1.762053        -0.968074
 C         3.748910        -0.561420        -1.395865
 C         2.166095        -0.509681        -1.300754
 O         1.684989        -0.553164        -2.667924
 H        -0.555167        -0.608989         0.910618
 H        -0.266698         0.943463        -0.045344
 H        -0.231191        -0.687715        -0.772178
 H         2.734428         1.546280        -0.055263
 H         1.928945        -0.892212         2.239969
 H         3.084662        -2.834164         1.101748
 H         2.903115        -2.670917        -1.615003
 H         4.576329        -0.322483        -0.795776
 H         3.886855        -0.377451        -2.495044
 H         0.983218         0.101540        -2.739458
