19
Iteration:  1853
 C        -0.018626        -0.083542         0.152473
 C         1.559825        -0.030205         0.033855
 O         1.829536         1.426524         0.181821
 C         2.215193        -0.963545         1.062956
 C         2.896069        -1.943357         0.551281
 C         3.038932        -1.834105        -0.942502
 C         3.675854        -0.561580        -1.478528
 C         2.186046        -0.503860        -1.349964
 O         1.550965        -0.445786        -2.511348
 H        -0.307252         0.994514         0.064127
 H        -0.456923        -0.831316        -0.577871
 H        -0.289061        -0.239351         1.183980
 H         2.727904         1.391605         0.401695
 H         1.831670        -0.975376         2.070728
 H         3.615429        -2.678436         0.995725
 H         2.780586        -2.725240        -1.552770
 H         4.313833        -0.048339        -0.764326
 H         4.064036        -0.717874        -2.529401
 H         2.100242        -0.005905        -3.160790
