19
Iteration:  2195
 C         0.123277        -0.223563         0.001239
 C         1.563672         0.080247         0.045479
 O         1.750755         1.470058         0.453703
 C         2.232713        -0.855971         1.059445
 C         3.014690        -1.816009         0.562387
 C         2.867534        -1.851828        -0.940850
 C         3.759195        -0.808433        -1.547803
 C         2.188203        -0.484622        -1.364367
 O         1.490868        -0.436551        -2.627581
 H        -0.338942         0.411346        -0.767686
 H        -0.127446        -1.377747        -0.154617
 H        -0.359540         0.069627         0.984771
 H         2.519333         1.586638         1.139046
 H         2.082384        -0.341935         2.044098
 H         3.337819        -2.618723         1.268576
 H         2.627500        -2.771232        -1.498100
 H         4.519167        -0.378440        -0.893874
 H         4.113858        -0.925133        -2.593874
 H         1.875328         0.148711        -3.317386
