19
Iteration:  2285
 C         0.050347        -0.076987         0.239926
 C         1.562097        -0.003221         0.006792
 O         1.951507         1.304106         0.114933
 C         2.208740        -0.937546         1.098464
 C         2.810294        -1.966020         0.474811
 C         2.994478        -1.728461        -1.018592
 C         3.653891        -0.388995        -1.334633
 C         2.131174        -0.583112        -1.258680
 O         1.566507        -0.544673        -2.594238
 H        -0.662827         0.590118        -0.402824
 H        -0.332254        -1.141480         0.278737
 H         0.018282         0.259164         1.296916
 H         2.838291         1.385366        -0.408780
 H         1.940499        -0.967337         2.139632
 H         3.236598        -2.856730         0.898073
 H         3.109929        -2.635152        -1.623589
 H         4.147483         0.175670        -0.580338
 H         4.053600        -0.338693        -2.367135
 H         1.543377         0.395778        -2.849317
