19
Iteration:   845charge 0 multiplicity 1
 C        -0.025891        -0.025603        -0.197030
 C         1.522263        -0.001114        -0.095978
 O         1.886460         1.279374         0.322258
 C         2.112592        -0.851626         1.092296
 C         2.901161        -1.840349         0.645921
 C         3.010032        -1.857085        -0.876558
 C         3.758525        -0.668505        -1.437275
 C         2.247599        -0.606305        -1.227937
 O         1.562491        -0.351788        -2.484151
 H        -0.408516        -0.299605         0.806251
 H        -0.468415         0.966492        -0.531177
 H        -0.258720        -0.699936        -0.984636
 H         2.706711         1.538111        -0.196324
 H         2.011630        -0.409013         2.095716
 H         3.532193        -2.455847         1.306557
 H         3.156635        -2.770179        -1.453251
 H         4.347681         0.010071        -0.750795
 H         3.873704        -0.548867        -2.472373
 H         1.122886        -1.152690        -2.846767
