19
Iteration:  1375charge 0 multiplicity 1
 C         0.052131         0.036031         0.143108
 C         1.524164        -0.080019        -0.008908
 O         1.939233         1.292615         0.130068
 C         2.202519        -0.941150         1.061902
 C         2.822370        -2.013004         0.488831
 C         3.023850        -1.837420        -0.970168
 C         3.713152        -0.425300        -1.212713
 C         2.214460        -0.548611        -1.328481
 O         1.550295        -0.504762        -2.618532
 H        -0.515868         0.830432        -0.399834
 H        -0.568372        -0.901797        -0.097916
 H        -0.024599         0.276010         1.183977
 H         1.148304         1.787662         0.425334
 H         1.894662        -0.910476         2.082523
 H         3.460268        -2.759194         0.974179
 H         3.399537        -2.566637        -1.679839
 H         4.205098         0.127696        -0.331012
 H         4.324179        -0.285445        -2.109824
 H         1.334329         0.308402        -3.109527
