19
Iteration:   537charge 0 multiplicity 1
 C         0.027240        -0.108901        -0.123920
 C         1.608264         0.057433        -0.054549
 O         1.900431         1.361162         0.412218
 C         2.211542        -0.874275         1.037345
 C         2.793261        -1.965759         0.592977
 C         3.000470        -1.791037        -0.976447
 C         3.780384        -0.454238        -1.337596
 C         2.292339        -0.541322        -1.321916
 O         1.430375        -0.504061        -2.527497
 H        -0.506842         0.122270         0.782682
 H        -0.199122         0.544426        -0.972770
 H         0.050417        -1.192524        -0.503042
 H         2.251366         1.944443        -0.204325
 H         1.823767        -0.642291         2.087124
 H         2.963862        -2.968082         1.091623
 H         3.021341        -2.733583        -1.587856
 H         4.126144         0.049427        -0.440911
 H         4.474899        -0.445492        -2.206871
 H         1.254419        -1.436619        -2.769200
