19
Iteration:  1200charge 0 multiplicity 1
 C         0.063762        -0.077826        -0.132181
 C         1.547480        -0.050192        -0.001968
 O         1.952500         1.255926         0.202908
 C         2.111601        -0.973885         1.085616
 C         2.807841        -2.001729         0.538430
 C         3.088144        -1.698473        -0.995100
 C         3.675083        -0.393258        -1.277660
 C         2.227062        -0.530862        -1.284100
 O         1.507594        -0.513601        -2.427225
 H        -0.268556         0.475204        -1.021167
 H        -0.509268        -0.999141         0.014877
 H        -0.456126         0.523575         0.598976
 H         2.827717         1.444039        -0.315980
 H         1.827781        -0.587112         2.077320
 H         3.386785        -2.752461         1.084217
 H         3.177470        -2.451446        -1.781263
 H         4.093223         0.111624        -0.433587
 H         4.427487        -0.431265        -2.156183
 H         0.995659         0.304315        -2.455816
