19
Iteration:    54
 C         0.039823        -0.054682        -0.013150
 C         1.527523        -0.059551         0.039682
 O         1.955648         1.363977         0.363083
 C         2.120982        -0.997646         1.076466
 C         2.836684        -1.986338         0.509028
 C         3.070806        -1.785958        -0.950689
 C         3.658374        -0.407615        -1.473142
 C         2.208869        -0.521415        -1.255681
 O         1.514369        -0.494354        -2.523167
 H        -0.172876         0.813194         0.565478
 H        -0.298128        -0.043390        -1.042115
 H        -0.424667        -1.018616         0.364203
 H         1.989273         1.839626        -0.442839
 H         2.003227        -0.737146         2.115270
 H         3.516847        -2.616433         1.032537
 H         3.065225        -2.591165        -1.658129
 H         4.277778         0.146715        -0.762913
 H         3.841678        -0.326729        -2.517248
 H         2.236393        -0.812899        -3.056235
