19
Iteration:  1449charge 0 multiplicity 1
 C         0.136385        -0.108137        -0.234440
 C         1.604035         0.044781        -0.026507
 O         1.951513         1.350744         0.507214
 C         2.192788        -0.894570         1.067332
 C         2.744046        -1.967680         0.533640
 C         3.084403        -1.832121        -0.913503
 C         3.734714        -0.536067        -1.508657
 C         2.265986        -0.498371        -1.354229
 O         1.357105        -0.517566        -2.394811
 H        -0.180541         0.546525        -1.083110
 H        -0.261014        -1.159755        -0.446718
 H        -0.429629         0.168051         0.688927
 H         1.244592         2.083451         0.392183
 H         2.176476        -0.861516         2.150853
 H         3.342947        -2.719620         1.068067
 H         3.144662        -2.659576        -1.613016
 H         4.396667         0.101154        -0.885207
 H         4.168673        -0.642972        -2.487183
 H         1.427419         0.125212        -3.116467
