19
Iteration:  4799
 C         0.033528        -0.305435         0.026107
 C         1.567956        -0.033474         0.024233
 O         1.891403         1.324090         0.223854
 C         2.250365        -0.932157         1.116609
 C         2.993949        -1.851988         0.439542
 C         2.838166        -1.729429        -0.997306
 C         3.685554        -0.541055        -1.453444
 C         2.152204        -0.568605        -1.269263
 O         1.554842        -0.288613        -2.449109
 H        -0.183023        -1.141359        -0.658517
 H        -0.437112        -0.379989         1.071059
 H        -0.417541         0.548514        -0.446730
 H         2.765654         1.422240         0.011852
 H         2.081322        -1.053643         2.222465
 H         3.629354        -2.652319         0.972925
 H         2.870097        -2.665530        -1.593344
 H         4.332391        -0.138206        -0.601144
 H         4.159407        -0.595420        -2.451940
 H         0.912526         0.450962        -2.345578
