19
Iteration:  1958charge 0 multiplicity 1
 C         0.058310         0.039926         0.251621
 C         1.549164        -0.053396        -0.025324
 O         1.843907         1.333032         0.173529
 C         2.165758        -0.987432         0.991530
 C         2.859188        -1.988480         0.517254
 C         3.017629        -1.744902        -0.970380
 C         3.798551        -0.525551        -1.284775
 C         2.190578        -0.535886        -1.335351
 O         1.429624        -0.485218        -2.588028
 H        -0.525915         0.753332        -0.257255
 H        -0.466472        -0.976008         0.161371
 H         0.142123         0.112042         1.295568
 H         2.704448         1.537670        -0.168722
 H         1.800918        -0.909769         1.999296
 H         3.752010        -2.408827         0.981541
 H         2.935204        -2.547933        -1.757792
 H         4.327545         0.107885        -0.565424
 H         4.291299        -0.575646        -2.301579
 H         2.093865        -0.301748        -3.277489
