19
Iteration:  2643
 C        -0.021313        -0.043123        -0.038957
 C         1.521767         0.005943         0.007918
 O         1.914435         1.279988         0.422628
 C         2.198929        -0.946973         1.118706
 C         3.002102        -1.826746         0.541182
 C         2.990154        -1.721873        -0.911470
 C         3.683277        -0.590230        -1.506132
 C         2.188659        -0.476239        -1.344155
 O         1.445364        -0.580916        -2.587704
 H        -0.381407         0.363977        -1.041809
 H        -0.405084        -0.985347         0.148038
 H        -0.318197         0.718107         0.688217
 H         2.867648         1.243876         0.711087
 H         2.289651        -0.802775         2.258322
 H         3.584613        -2.642081         1.008026
 H         3.030470        -2.560260        -1.551815
 H         4.350594         0.083021        -0.973041
 H         3.870445        -0.745862        -2.575277
 H         1.697829         0.138114        -3.214902
