19
Iteration:  3863
 C         0.145885        -0.443582        -0.077691
 C         1.602423         0.027559        -0.018113
 O         1.901270         1.415884         0.185029
 C         2.287380        -0.838217         1.027315
 C         2.890162        -1.892133         0.513230
 C         2.817842        -1.864585        -0.994336
 C         3.733525        -0.601320        -1.398476
 C         2.258589        -0.486847        -1.202058
 O         1.446795        -0.295204        -2.353250
 H        -0.457614        -0.480213        -1.017756
 H         0.112315        -1.487049         0.339723
 H        -0.445922         0.125554         0.632156
 H         1.147139         1.935970         0.177454
 H         2.327216        -0.625767         2.140715
 H         3.401264        -2.619491         1.061646
 H         2.711056        -2.569330        -1.802911
 H         4.459706        -0.157345        -0.678014
 H         3.790716        -0.611968        -2.437781
 H         1.674599         0.564732        -2.703261
