19
Iteration:  3356charge 0 multiplicity 1
 C         0.046007        -0.115951         0.225748
 C         1.518972        -0.111399         0.051502
 O         1.876011         1.331974         0.106032
 C         2.177528        -0.947664         1.047647
 C         2.976842        -1.935259         0.423391
 C         3.077620        -1.773312        -1.049002
 C         3.709733        -0.437486        -1.298332
 C         2.231687        -0.551836        -1.350269
 O         1.462474        -0.483385        -2.529379
 H        -0.311925         0.676640        -0.586268
 H        -0.737672        -0.912258         0.089928
 H        -0.164888         0.211062         1.250823
 H         1.276708         1.795319         0.636264
 H         1.986284        -0.844556         2.156085
 H         3.526284        -2.709949         1.016238
 H         3.212461        -2.619212        -1.615502
 H         4.032686         0.142190        -0.408266
 H         4.196304        -0.343041        -2.217092
 H         1.825548         0.302250        -2.953464
