19
Iteration:  1428
 C         0.026409        -0.091415        -0.077470
 C         1.623760        -0.035285        -0.014463
 O         2.073709         1.287894         0.328647
 C         2.040926        -1.013426         1.038489
 C         2.951001        -1.870106         0.577046
 C         3.006436        -1.724296        -0.919633
 C         3.765257        -0.509768        -1.412180
 C         2.216810        -0.548573        -1.321247
 O         1.379352        -0.457632        -2.491916
 H        -0.229842         0.471487        -0.994500
 H        -0.415637        -1.158715        -0.084698
 H        -0.399274         0.256466         0.876987
 H         1.230303         1.770723         0.177007
 H         1.805873        -0.807055         2.072092
 H         3.259314        -2.763369         1.127440
 H         2.911107        -2.546252        -1.620289
 H         4.263285         0.133866        -0.651643
 H         4.240624        -0.562380        -2.389213
 H         1.641765         0.240855        -3.126152
