19
Iteration:  2488charge 0 multiplicity 1
 C         0.124124        -0.271557        -0.110668
 C         1.625183         0.044137         0.018611
 O         1.833957         1.422849         0.197833
 C         2.179780        -0.901785         1.081926
 C         2.957379        -1.877509         0.603155
 C         2.949163        -1.864773        -0.977323
 C         3.761235        -0.698027        -1.453409
 C         2.231630        -0.545768        -1.332264
 O         1.321043        -0.262424        -2.302254
 H        -0.225633        -0.110645        -1.090326
 H        -0.176951        -1.332266         0.020891
 H        -0.418597         0.397107         0.460828
 H         2.830795         1.631822         0.114504
 H         2.288851        -0.635716         2.076830
 H         3.299865        -2.727650         1.094275
 H         2.992868        -2.882297        -1.439739
 H         4.460118        -0.143448        -0.851093
 H         4.037348        -0.993869        -2.525329
 H         1.591944         0.433689        -2.925145
