19
Iteration:  3571
 C        -0.022896        -0.317176         0.077409
 C         1.528305         0.002190         0.011965
 O         1.793405         1.445041         0.260839
 C         2.251502        -0.888874         1.107630
 C         2.924146        -1.873831         0.544413
 C         2.934493        -1.794762        -0.981178
 C         3.778041        -0.676275        -1.491356
 C         2.237480        -0.467804        -1.287956
 O         1.567267        -0.338668        -2.559839
 H        -0.360247        -0.026742        -0.832972
 H        -0.262601        -1.421062         0.321989
 H        -0.430042         0.131472         0.952620
 H         1.306303         1.570950         1.030930
 H         2.283359        -0.475592         2.083184
 H         3.745283        -2.538639         1.009751
 H         2.703910        -2.681705        -1.617542
 H         4.673236        -0.450402        -0.942319
 H         3.945148        -0.884830        -2.594252
 H         2.164057         0.094572        -3.185210
