19
Iteration:  2822charge 0 multiplicity 1
 C         0.129165        -0.225163        -0.166883
 C         1.675692         0.013349        -0.003602
 O         1.864687         1.337226         0.391778
 C         2.172782        -0.906255         1.082341
 C         2.925942        -1.848849         0.504495
 C         2.949568        -1.681261        -0.952079
 C         3.711915        -0.564775        -1.492314
 C         2.219877        -0.425875        -1.334209
 O         1.373707        -0.567766        -2.390592
 H        -0.200696         0.318564        -0.964005
 H        -0.209374        -1.306952        -0.138952
 H        -0.132482         0.224698         0.748540
 H         2.799219         1.423309         0.642590
 H         2.025608        -0.773236         2.180531
 H         3.245696        -2.732772         1.050380
 H         2.694303        -2.563242        -1.517541
 H         4.480199        -0.093966        -0.870293
 H         3.898918        -0.551290        -2.597800
 H         1.274437         0.220078        -2.982867
