19
Iteration:  1683
 C         0.060717        -0.104167         0.079435
 C         1.573929        -0.024190         0.035565
 O         1.958834         1.442920         0.083070
 C         2.088737        -1.026798         1.053632
 C         2.794308        -2.000226         0.494094
 C         3.034012        -1.799023        -0.964599
 C         3.691508        -0.372723        -1.351726
 C         2.241936        -0.574559        -1.316817
 O         1.505381        -0.504877        -2.445721
 H        -0.323542         0.644723        -0.653212
 H        -0.172771        -1.104610        -0.158363
 H        -0.327050        -0.012184         1.122289
 H         2.839562         1.508846         0.378293
 H         1.991941        -0.768378         2.050963
 H         2.974170        -2.960032         0.954377
 H         3.148045        -2.773794        -1.425302
 H         4.239077         0.022971        -0.551670
 H         4.244352        -0.339009        -2.310739
 H         1.249882         0.402908        -2.749900
