19
Iteration:  4859
 C         0.089228        -0.066101         0.091559
 C         1.589641         0.008510         0.074728
 O         1.898392         1.362072         0.330113
 C         2.060499        -1.076971         1.067865
 C         2.924106        -1.997150         0.455812
 C         3.104926        -1.696177        -1.030845
 C         3.683985        -0.292350        -1.523879
 C         2.181427        -0.498928        -1.310609
 O         1.391805        -0.625828        -2.484678
 H        -0.273639        -0.311984        -0.875780
 H        -0.351156        -0.750733         0.816208
 H        -0.255808         0.963971         0.296199
 H         2.863909         1.510600         0.583760
 H         1.935421        -1.165265         2.211478
 H         3.424590        -2.784314         1.034524
 H         3.120610        -2.558672        -1.647891
 H         4.372437         0.177188        -0.846755
 H         4.016882        -0.335577        -2.554254
 H         2.001166        -0.287050        -3.221533
