19
Iteration:  2147
 C         0.096773        -0.148329         0.029970
 C         1.605804         0.014206         0.054045
 O         1.832953         1.463964         0.159016
 C         2.244400        -0.978494         1.111810
 C         2.878400        -1.990513         0.488871
 C         3.031046        -1.865470        -0.964786
 C         3.671502        -0.530646        -1.421106
 C         2.204149        -0.543121        -1.233112
 O         1.438915        -0.433129        -2.451210
 H        -0.132206         0.448702        -0.888940
 H        -0.193243        -1.135141        -0.186005
 H        -0.485457         0.222310         0.906918
 H         2.670003         1.616015        -0.236412
 H         1.753839        -0.976446         2.127202
 H         3.489305        -2.644683         1.116420
 H         2.833102        -2.643909        -1.701643
 H         4.326846        -0.002026        -0.630510
 H         4.022087        -0.445356        -2.472845
 H         1.690186         0.385440        -2.926078
