19
Iteration:   417charge 0 multiplicity 1
 C         0.072885        -0.160987        -0.134597
 C         1.627039         0.038318         0.035767
 O         1.779494         1.477627         0.262427
 C         2.133798        -0.962954         1.092514
 C         2.732515        -2.049203         0.581482
 C         2.982165        -1.811498        -0.891559
 C         3.771576        -0.452399        -1.459437
 C         2.334101        -0.497056        -1.277853
 O         1.513293        -0.535994        -2.435344
 H        -0.245708        -0.614360         0.779595
 H        -0.455023         0.767690        -0.134104
 H        -0.193175        -0.916267        -0.900137
 H         2.650581         1.559737        -0.277292
 H         2.019107        -0.797882         2.119598
 H         3.411050        -2.698648         1.071743
 H         2.853859        -2.450224        -1.777440
 H         4.259520         0.167585        -0.720733
 H         4.202231        -0.472046        -2.451933
 H         2.069345        -0.051515        -3.072048
