19
Iteration:  3167charge 0 multiplicity 1
 C         0.057935        -0.076487        -0.080588
 C         1.619423        -0.067457         0.108561
 O         2.071785         1.376220         0.207165
 C         2.143849        -1.020785         1.124901
 C         2.860982        -1.994064         0.442285
 C         3.131241        -1.685761        -1.015439
 C         3.646608        -0.263396        -1.348032
 C         2.175445        -0.507865        -1.275233
 O         1.335938        -0.705890        -2.399550
 H        -0.236465         0.596483        -0.812629
 H        -0.272073        -1.154598        -0.371636
 H        -0.382781         0.263779         0.879921
 H         1.440113         1.919967        -0.402649
 H         1.859573        -0.948066         2.162252
 H         3.382093        -2.868624         0.933365
 H         3.264206        -2.436244        -1.790507
 H         4.291164         0.219243        -0.497333
 H         4.158606        -0.236688        -2.304469
 H         1.464540         0.109244        -2.970854
