19
Iteration:  4864
 C         0.059794        -0.063978         0.072247
 C         1.563704         0.044065         0.086017
 O         1.944467         1.388761         0.362211
 C         2.077513        -1.077368         0.999711
 C         2.939087        -2.029528         0.484806
 C         3.114503        -1.652764        -1.021188
 C         3.699451        -0.311650        -1.555417
 C         2.131259        -0.520036        -1.281175
 O         1.390232        -0.651460        -2.478156
 H        -0.334502        -0.343868        -0.960730
 H        -0.384180        -0.854825         0.836282
 H        -0.460035         0.881518         0.289927
 H         2.922257         1.370147         0.581295
 H         1.770606        -1.047841         2.028078
 H         3.554182        -2.785396         1.029158
 H         3.023230        -2.538671        -1.727265
 H         4.388732         0.175248        -0.827695
 H         4.190815        -0.201324        -2.553208
 H         2.054862        -0.307856        -3.040682
