19
Iteration:   254charge 0 multiplicity 1
 C         0.022102        -0.023414        -0.059305
 C         1.557726        -0.008794        -0.077647
 O         1.802211         1.292166         0.343880
 C         2.143392        -0.948144         1.001776
 C         2.942518        -1.984727         0.586582
 C         2.994094        -1.770032        -0.858860
 C         3.738500        -0.498119        -1.300735
 C         2.226279        -0.553840        -1.308286
 O         1.550064        -0.507195        -2.626892
 H        -0.308265         0.847880         0.539202
 H        -0.429659         0.118645        -1.075512
 H        -0.205723        -0.963268         0.421586
 H         2.657882         1.608644        -0.104679
 H         2.107095        -0.656217         2.090566
 H         3.392029        -2.700002         1.269876
 H         2.892158        -2.534511        -1.604950
 H         4.292732        -0.067669        -0.410306
 H         4.122695        -0.402525        -2.300653
 H         1.457747         0.434459        -2.883678
