19
Iteration:  2480
 C         0.102870        -0.259666        -0.018087
 C         1.604126        -0.026067         0.044610
 O         1.846381         1.412222         0.180061
 C         2.210785        -0.836384         1.070315
 C         2.881169        -1.907701         0.536124
 C         2.929286        -1.839386        -0.929718
 C         3.839553        -0.710027        -1.409804
 C         2.270033        -0.528480        -1.321811
 O         1.284589        -0.285199        -2.392972
 H        -0.081316        -0.095271        -1.133737
 H        -0.035504        -1.293430         0.169177
 H        -0.502118         0.379535         0.631940
 H         2.851951         1.497870        -0.067742
 H         2.045542        -0.684309         2.138971
 H         3.437864        -2.694259         1.100370
 H         2.954596        -2.708866        -1.671962
 H         4.516224         0.004597        -0.929857
 H         4.191831        -0.837223        -2.398150
 H         1.571813         0.508046        -2.868540
