19
Iteration:  3492
 C         0.029168        -0.160427         0.020065
 C         1.523018        -0.023307         0.025285
 O         2.047441         1.345467         0.235641
 C         2.124225        -0.993190         1.088066
 C         2.899493        -1.872921         0.503249
 C         3.076117        -1.694465        -0.965460
 C         3.690041        -0.361308        -1.350728
 C         2.142165        -0.551141        -1.284152
 O         1.454144        -0.638241        -2.537512
 H        -0.582075         0.806585        -0.098448
 H        -0.361711        -0.915368        -0.654941
 H        -0.264035        -0.456887         1.077102
 H         2.494280         1.541387        -0.595624
 H         1.935337        -0.879106         2.192209
 H         3.417472        -2.626731         1.032454
 H         3.080737        -2.455413        -1.710429
 H         4.332295         0.235144        -0.612262
 H         4.114412        -0.147639        -2.333402
 H         1.114733         0.264722        -2.685028
