19
Iteration:  1646charge 0 multiplicity 1
 C        -0.017825        -0.081344        -0.087248
 C         1.560455        -0.047545         0.022872
 O         1.919022         1.354588         0.285839
 C         2.137290        -0.962619         1.039383
 C         2.942700        -1.886833         0.553946
 C         3.029359        -1.885609        -0.928389
 C         3.786077        -0.547519        -1.393200
 C         2.197332        -0.544529        -1.318011
 O         1.404244        -0.393905        -2.422410
 H        -0.375891         0.909523        -0.304723
 H        -0.501179        -0.697272        -0.904680
 H        -0.459734        -0.171031         0.858013
 H         2.299574         1.613445        -0.567176
 H         2.253753        -0.633284         2.135248
 H         3.460688        -2.727622         1.038698
 H         3.124267        -2.782971        -1.551137
 H         4.300753        -0.108316        -0.446135
 H         4.353629        -0.514017        -2.331402
 H         1.854874         0.020819        -3.187618
