19
Iteration:   361
 C        -0.082277        -0.120093        -0.154175
 C         1.497128        -0.082858        -0.059564
 O         1.894070         1.357598         0.234035
 C         2.107866        -0.964469         1.017640
 C         3.054600        -1.894892         0.566103
 C         2.930597        -1.785025        -0.850585
 C         3.729045        -0.469468        -1.350374
 C         2.240794        -0.583946        -1.260388
 O         1.508308        -0.355586        -2.457191
 H        -0.350213         0.634991         0.627717
 H        -0.291088         0.049746        -1.234719
 H        -0.443308        -1.060781         0.121572
 H         2.634598         1.039726         0.862990
 H         2.106840        -0.596853         2.071416
 H         3.598142        -2.696608         1.079366
 H         3.014418        -2.588932        -1.551052
 H         4.466834        -0.102897        -0.620344
 H         4.045370        -0.566523        -2.321505
 H         2.151735        -0.516957        -3.151967
