19
Iteration:  3883charge 0 multiplicity 1
 C         0.043618        -0.430066         0.116290
 C         1.608801        -0.002537         0.053646
 O         1.862744         1.469875         0.191536
 C         2.402357        -0.856218         1.066466
 C         2.832760        -1.958066         0.550787
 C         2.891427        -1.792946        -1.019935
 C         3.777539        -0.653722        -1.378188
 C         2.215876        -0.473439        -1.337778
 O         1.492386        -0.286051        -2.564777
 H        -0.367442        -0.371303        -0.945371
 H        -0.128634        -1.398273         0.387476
 H        -0.730131         0.100017         0.670547
 H         0.976240         1.882497         0.150631
 H         2.503068        -0.602992         2.181349
 H         3.286251        -2.824674         0.968153
 H         2.803807        -2.734680        -1.525893
 H         4.181096        -0.169571        -0.383387
 H         4.344020        -0.693585        -2.330050
 H         1.304274         0.694059        -2.607231
