19
Iteration:  2058charge 0 multiplicity 1
 C         0.012708        -0.030207        -0.061056
 C         1.572759         0.103414        -0.009965
 O         1.812696         1.387504         0.486866
 C         2.225838        -0.947950         1.158866
 C         2.925722        -1.906256         0.537523
 C         2.915848        -1.808511        -0.986973
 C         3.701843        -0.580165        -1.616524
 C         2.251348        -0.517397        -1.292971
 O         1.564138        -0.523219        -2.540257
 H        -0.454839         0.719031        -0.744214
 H        -0.343400        -1.051000        -0.243284
 H        -0.250729         0.244489         0.922217
 H         2.704923         1.632050         0.365470
 H         2.408473        -0.798693         2.259519
 H         3.497310        -2.802971         0.912017
 H         2.769676        -2.626607        -1.689513
 H         4.568427        -0.079032        -1.131691
 H         3.920323        -0.700027        -2.695364
 H         0.989659        -1.302379        -2.624420
