19
Iteration:   661
 C         0.011091        -0.166347        -0.176468
 C         1.544428         0.093877        -0.006669
 O         1.914121         1.469442         0.242462
 C         2.023736        -0.957257         1.057693
 C         2.749446        -1.967569         0.536389
 C         3.068223        -1.803452        -0.914073
 C         3.822475        -0.477208        -1.389199
 C         2.372789        -0.460912        -1.335491
 O         1.445767        -0.525684        -2.364597
 H        -0.221151        -0.601245         0.785685
 H        -0.633629         0.700625        -0.393172
 H        -0.093672        -0.847740        -0.936939
 H         2.623221         1.380051         0.825799
 H         2.000600        -0.628631         2.073158
 H         3.323765        -2.739408         1.080409
 H         3.097353        -2.718287        -1.561210
 H         4.535318        -0.044191        -0.718432
 H         4.237676        -0.511271        -2.474592
 H         1.374699        -1.399316        -2.774543
