19
Iteration:  4566charge 0 multiplicity 1
 C         0.043986         0.033776        -0.032953
 C         1.574289        -0.108145         0.042011
 O         2.030040         1.220927         0.271986
 C         2.084140        -1.107769         1.047161
 C         3.043462        -1.954127         0.491123
 C         3.157878        -1.645421        -0.933025
 C         3.611701        -0.277498        -1.489881
 C         2.178649        -0.539787        -1.276147
 O         1.284451        -0.498769        -2.415711
 H        -0.560343        -0.837373        -0.287946
 H        -0.354652         0.486527         0.831333
 H        -0.184008         0.755020        -0.854560
 H         2.533224         1.249025         1.028050
 H         1.637149        -1.217944         2.026467
 H         3.499990        -2.883915         0.856771
 H         3.362201        -2.490842        -1.685646
 H         4.136839         0.459948        -0.873193
 H         3.845433        -0.220896        -2.525014
 H         1.834500        -0.858469        -3.174286
