19
Iteration:  3774charge 0 multiplicity 1
 C        -0.051274        -0.102906         0.005757
 C         1.518564         0.017328         0.047214
 O         2.123237         1.330556         0.193569
 C         2.130066        -1.048846         1.061768
 C         2.938754        -2.003447         0.524075
 C         3.075326        -1.641568        -0.917525
 C         3.579917        -0.323103        -1.387514
 C         2.190161        -0.447468        -1.300541
 O         1.483520        -0.716217        -2.562725
 H        -0.402314         0.933545        -0.420174
 H        -0.223600        -0.875458        -0.668902
 H        -0.382228        -0.305970         1.058746
 H         1.724851         1.778650         0.930690
 H         2.016456        -0.803334         2.081489
 H         3.584347        -2.764485         1.081180
 H         3.148597        -2.419599        -1.694191
 H         4.076116         0.269686        -0.602817
 H         4.286637        -0.327831        -2.297834
 H         1.007075         0.083918        -2.751673
