19
Iteration:   383
 C         0.032296        -0.128640        -0.077097
 C         1.548062         0.035772         0.041133
 O         1.778456         1.350155         0.340606
 C         2.100658        -0.855748         1.066340
 C         2.835631        -1.891896         0.515533
 C         3.110131        -1.817780        -0.965669
 C         3.787805        -0.597703        -1.391385
 C         2.304498        -0.514798        -1.343234
 O         1.454211        -0.443276        -2.521804
 H        -0.199750         0.132229         0.968266
 H        -0.315368         0.461299        -0.946037
 H        -0.157248        -1.151915        -0.254954
 H         2.725708         1.394213         0.524159
 H         1.713297        -0.797602         2.082679
 H         3.324541        -2.527312         1.258164
 H         3.072769        -2.788251        -1.436845
 H         4.274548         0.039823        -0.622334
 H         4.284738        -0.613142        -2.290378
 H         2.028296        -0.592929        -3.314145
