19
Iteration:  4708charge 0 multiplicity 1
 C         0.064025        -0.289575         0.127792
 C         1.573208        -0.020739         0.036789
 O         1.862091         1.373043         0.242793
 C         2.294794        -0.914439         1.051842
 C         2.949741        -1.937934         0.532584
 C         2.819695        -1.917604        -1.001005
 C         3.643676        -0.487365        -1.453554
 C         2.178450        -0.552675        -1.299761
 O         1.598732        -0.172544        -2.513922
 H        -0.021273        -1.402343         0.045798
 H        -0.454535         0.136720         1.111256
 H        -0.358585         0.276329        -0.758167
 H         2.702880         1.533758        -0.126850
 H         2.113743        -0.795137         2.082544
 H         3.344475        -2.762813         1.040756
 H         3.041058        -2.729201        -1.714948
 H         4.269540        -0.093499        -0.706278
 H         3.833142        -0.218365        -2.479275
 H         0.988972        -0.884652        -2.875018
