19
Iteration:   131
 C        -0.030488        -0.131770         0.048846
 C         1.549116        -0.006907         0.056535
 O         1.865638         1.410135         0.244988
 C         2.150467        -0.902211         1.166001
 C         2.895211        -1.911487         0.545662
 C         2.977314        -1.739762        -0.948909
 C         3.746117        -0.560039        -1.409457
 C         2.167866        -0.510861        -1.310876
 O         1.667617        -0.533861        -2.652261
 H        -0.526000        -0.595613         0.927632
 H        -0.238455         0.934723        -0.084702
 H        -0.292645        -0.775652        -0.812329
 H         2.896697         1.445573         0.096929
 H         1.850794        -0.945980         2.202709
 H         3.079696        -2.830942         1.123308
 H         2.956273        -2.680173        -1.532706
 H         4.568923        -0.288216        -0.696896
 H         3.869854        -0.424753        -2.447536
 H         0.954686         0.110820        -2.820062
