19
Iteration:  2527charge 0 multiplicity 1
 C         0.006138        -0.125139         0.041612
 C         1.587693        -0.015154         0.064876
 O         1.780797         1.378093         0.282344
 C         2.255414        -0.879445         1.133870
 C         2.964274        -1.830032         0.497222
 C         2.890143        -1.812244        -0.925808
 C         3.705206        -0.693843        -1.516072
 C         2.206137        -0.507983        -1.331722
 O         1.501569        -0.440639        -2.556540
 H        -0.360271         0.641990        -0.667618
 H        -0.282852        -1.153533        -0.350877
 H        -0.383940         0.095002         1.121451
 H         2.667739         1.493888         0.671291
 H         2.448461        -0.447278         2.152843
 H         3.400757        -2.660373         1.080717
 H         2.993674        -2.658623        -1.524427
 H         4.499654        -0.369594        -0.837327
 H         4.148139        -0.878621        -2.502851
 H         2.071466         0.116969        -3.108765
