19
Iteration:  1871charge 0 multiplicity 1
 C         0.034571        -0.069783         0.000460
 C         1.552031         0.012735         0.002679
 O         1.870496         1.393836         0.237327
 C         2.175089        -0.935598         1.005389
 C         2.950357        -1.885676         0.553463
 C         3.033687        -1.882383        -0.969590
 C         3.747491        -0.611307        -1.442608
 C         2.211518        -0.642432        -1.280939
 O         1.404537        -0.396661        -2.472628
 H        -0.505373         0.791487        -0.369009
 H        -0.314236        -1.053642        -0.464431
 H        -0.284658        -0.203538         1.061004
 H         2.600416         1.467327         0.803830
 H         2.177475        -0.424316         1.998556
 H         3.286948        -2.712099         1.168305
 H         3.240659        -2.769884        -1.573059
 H         4.527457        -0.039476        -0.813117
 H         3.944909        -0.519927        -2.459808
 H         1.576316         0.490531        -2.801726
