19
Iteration:  4670
 C        -0.037073        -0.047016         0.036031
 C         1.601999        -0.067107         0.016930
 O         1.929329         1.303544         0.277414
 C         2.162472        -1.048445         0.991978
 C         2.961535        -2.009178         0.509075
 C         3.004102        -1.760813        -1.002625
 C         3.757508        -0.395622        -1.452102
 C         2.274664        -0.525839        -1.314096
 O         1.395163        -0.382925        -2.438103
 H        -0.598444        -0.904636        -0.446029
 H        -0.394081        -0.156144         1.031242
 H        -0.472135         0.884338        -0.377317
 H         2.773373         1.547495        -0.311886
 H         2.004269        -0.872027         2.103033
 H         3.463579        -2.707568         1.216392
 H         3.373915        -2.553504        -1.586021
 H         4.299939         0.182904        -0.631483
 H         4.091651        -0.172087        -2.514790
 H         0.678918        -0.918762        -2.119992
