19
Iteration:  2540
 C         0.021554        -0.086246         0.102059
 C         1.546451         0.037216        -0.044617
 O         1.810503         1.429860         0.343519
 C         2.252338        -0.819710         1.042571
 C         2.919426        -1.911470         0.541890
 C         2.918032        -1.859562        -0.995525
 C         3.769552        -0.652439        -1.401915
 C         2.239620        -0.547338        -1.352284
 O         1.490653        -0.529356        -2.598260
 H        -0.647086         0.687191        -0.205800
 H        -0.337067        -1.125917        -0.306315
 H        -0.125857        -0.234007         1.209260
 H         2.760299         1.519563         0.523910
 H         2.094188        -0.677352         2.086586
 H         3.661069        -2.539631         0.982116
 H         2.701242        -2.775558        -1.532929
 H         4.252985        -0.101326        -0.619656
 H         4.216848        -0.568492        -2.462460
 H         1.708660         0.292418        -3.093524
