19
Iteration:  4729charge 0 multiplicity 1
 C         0.045800        -0.348944         0.124490
 C         1.619162        -0.017006         0.073131
 O         1.736471         1.420809         0.230489
 C         2.347578        -0.925869         1.054274
 C         2.808941        -2.004196         0.442852
 C         2.859071        -1.741072        -1.012807
 C         3.745633        -0.618290        -1.460519
 C         2.228158        -0.460241        -1.263762
 O         1.614127        -0.225986        -2.524699
 H        -0.059226        -1.370527         0.565582
 H        -0.227345         0.413470         0.911174
 H        -0.594535        -0.187625        -0.810475
 H         2.660809         1.703227         0.278627
 H         2.578351        -0.634758         2.039258
 H         3.472875        -2.692574         0.880886
 H         2.628057        -2.566721        -1.694774
 H         4.418313        -0.255976        -0.738474
 H         4.068347        -0.729859        -2.482740
 H         0.705358        -0.583933        -2.521628
