19
Iteration:  1535charge 0 multiplicity 1
 C         0.035401        -0.137193         0.086846
 C         1.561233        -0.068393         0.003966
 O         2.046400         1.328696         0.130447
 C         2.136953        -1.004475         1.077158
 C         2.904610        -1.965752         0.538068
 C         2.979574        -1.849726        -0.929810
 C         3.651491        -0.476123        -1.273796
 C         2.184833        -0.565006        -1.325033
 O         1.494931        -0.319339        -2.512420
 H        -0.440884         0.403863        -0.692205
 H        -0.233754        -1.173814        -0.024881
 H        -0.209858         0.414643         0.962996
 H         1.449265         1.757575        -0.546290
 H         1.983069        -0.637466         2.036651
 H         3.285572        -2.824599         1.060219
 H         3.158445        -2.524115        -1.766578
 H         3.982520         0.134341        -0.499073
 H         4.178347        -0.505489        -2.267007
 H         1.856865         0.410426        -3.061769
