19
Iteration:  4796charge 0 multiplicity 1
 C         0.043913        -0.311460         0.024527
 C         1.588939        -0.027142         0.052995
 O         1.863080         1.304573         0.225020
 C         2.262801        -0.915871         1.111545
 C         2.986104        -1.864262         0.453008
 C         2.841247        -1.751211        -0.969886
 C         3.698955        -0.526042        -1.473825
 C         2.157180        -0.550288        -1.274157
 O         1.554641        -0.272186        -2.467384
 H        -0.201276        -1.197289        -0.587254
 H        -0.498083        -0.330349         1.108199
 H        -0.455158         0.525219        -0.549074
 H         2.841319         1.412984        -0.035655
 H         2.093507        -1.079044         2.223512
 H         3.511761        -2.651423         1.001879
 H         2.780161        -2.587028        -1.622150
 H         4.398243        -0.268267        -0.723851
 H         4.151701        -0.606395        -2.425795
 H         0.859488         0.436821        -2.386749
