19
Iteration:  1521charge 0 multiplicity 1
 C        -0.023843        -0.123912         0.098583
 C         1.554807        -0.030142        -0.055169
 O         2.030331         1.278999         0.237629
 C         2.191564        -0.865417         1.045898
 C         2.828646        -1.931185         0.542201
 C         3.063304        -1.858666        -0.970346
 C         3.666855        -0.533012        -1.326761
 C         2.148050        -0.608334        -1.355464
 O         1.515313        -0.341708        -2.569504
 H        -0.636913         0.514122        -0.538331
 H        -0.401970        -1.087700         0.019332
 H        -0.281442        -0.002114         1.169040
 H         1.803693         1.953121        -0.455402
 H         1.898952        -0.948372         2.146075
 H         3.512586        -2.572451         1.165145
 H         3.102439        -2.861320        -1.367389
 H         4.195444        -0.023357        -0.473176
 H         4.181376        -0.307847        -2.196617
 H         1.861449         0.552975        -2.696986
