19
Iteration:  4934
 C        -0.082857         0.045629         0.016272
 C         1.461424        -0.078109         0.074344
 O         1.929436         1.341358         0.283655
 C         2.145300        -1.107068         1.043444
 C         3.047539        -1.864564         0.494698
 C         3.204211        -1.774118        -1.014840
 C         3.660125        -0.418149        -1.542066
 C         2.159311        -0.582133        -1.233444
 O         1.449675        -0.539080        -2.458765
 H        -0.350108         0.280027        -0.987990
 H        -0.530899        -0.825581         0.289453
 H        -0.411735         0.917696         0.639144
 H         2.826715         1.325028         0.359095
 H         2.000551        -0.990050         2.197675
 H         3.665838        -2.598681         1.001614
 H         3.576385        -2.515426        -1.671033
 H         4.403917        -0.069390        -0.757661
 H         3.944607        -0.331948        -2.609210
 H         0.779634         0.117060        -2.503164
