19
Iteration:   384charge 0 multiplicity 1
 C         0.041843        -0.127148        -0.073785
 C         1.552373         0.039681         0.046465
 O         1.772227         1.360682         0.344425
 C         2.099707        -0.854930         1.059594
 C         2.834875        -1.891166         0.512105
 C         3.117137        -1.815707        -0.949445
 C         3.781356        -0.599996        -1.390158
 C         2.307366        -0.512018        -1.345386
 O         1.448929        -0.447502        -2.525849
 H        -0.197065         0.086403         0.950178
 H        -0.297431         0.496595        -0.905344
 H        -0.138127        -1.176879        -0.275802
 H         2.694238         1.362256         0.468575
 H         1.711850        -0.839083         2.043107
 H         3.277201        -2.584325         1.228225
 H         3.080134        -2.787981        -1.458156
 H         4.285445         0.023223        -0.616727
 H         4.279686        -0.640608        -2.320248
 H         2.052721        -0.596539        -3.305715
