19
Iteration:  3698charge 0 multiplicity 1
 C        -0.016711         0.026899        -0.113700
 C         1.501297        -0.054026         0.104999
 O         1.930816         1.219713         0.546567
 C         2.139966        -0.968451         1.046475
 C         3.004547        -1.776059         0.510245
 C         3.114135        -1.694136        -0.969035
 C         3.565714        -0.392289        -1.507027
 C         2.183947        -0.489473        -1.349386
 O         1.482159        -0.718908        -2.541922
 H        -0.093353         0.570039        -1.171353
 H        -0.236243        -0.991360        -0.176617
 H        -0.397157         0.762201         0.667376
 H         2.811834         1.371342         0.096620
 H         1.883659        -1.021982         2.066830
 H         3.574640        -2.567675         1.109617
 H         3.036384        -2.605806        -1.560800
 H         4.039472         0.174062        -0.721914
 H         3.941920        -0.510749        -2.611765
 H         2.023542        -0.221519        -3.213062
