19
Iteration:  2702charge 0 multiplicity 1
 C         0.118620        -0.162291         0.007367
 C         1.610775        -0.034685        -0.022794
 O         1.821379         1.359429         0.197976
 C         2.253482        -0.923945         1.071735
 C         2.839391        -1.972511         0.530783
 C         2.923979        -1.754409        -0.939232
 C         3.832160        -0.515867        -1.407284
 C         2.256885        -0.503290        -1.351366
 O         1.342758        -0.458383        -2.406365
 H        -0.186049         0.527812        -0.728460
 H        -0.362336        -1.223472        -0.144100
 H        -0.267845         0.163381         0.989045
 H         2.819676         1.530606         0.044558
 H         2.268183        -0.633952         2.100110
 H         3.279875        -2.898648         0.961918
 H         2.891873        -2.542589        -1.781606
 H         4.473793        -0.024302        -0.571301
 H         4.417583        -0.535378        -2.314124
 H         1.119822         0.431926        -2.675227
