19
Iteration:   204charge 0 multiplicity 1
 C         0.045724        -0.202527        -0.190905
 C         1.603789        -0.032397        -0.037191
 O         1.986426         1.418836         0.069283
 C         2.099403        -1.027066         1.117651
 C         2.891949        -1.982800         0.641044
 C         2.967355        -1.781272        -0.836457
 C         3.650500        -0.465114        -1.418100
 C         2.246516        -0.506903        -1.232751
 O         1.486927        -0.392813        -2.387514
 H        -0.347042        -0.381764         0.789641
 H        -0.233236         0.804819        -0.415119
 H        -0.243991        -1.075818        -0.905225
 H         2.000525         1.559742         1.051030
 H         1.682151        -0.725024         2.054412
 H         3.427672        -2.809066         1.120358
 H         3.045384        -2.531611        -1.616744
 H         4.292331         0.207174        -0.771495
 H         3.879732        -0.712188        -2.434907
 H         1.975730         0.037284        -3.083640
