19
Iteration:   237charge 0 multiplicity 1
 C        -0.003969        -0.126991        -0.055459
 C         1.553319        -0.102114        -0.014358
 O         1.881981         1.358274         0.230123
 C         2.040850        -0.886733         1.116483
 C         2.860548        -1.862987         0.527089
 C         3.049214        -1.835850        -0.957122
 C         3.774794        -0.526957        -1.330510
 C         2.238808        -0.574236        -1.366769
 O         1.480437        -0.423517        -2.465648
 H        -0.241057         0.568378         0.728343
 H        -0.299271         0.219387        -1.033451
 H        -0.510746        -1.178780         0.003344
 H         2.914012         1.283276         0.359331
 H         1.703430        -0.744071         2.120309
 H         3.549191        -2.555776         1.029723
 H         3.391586        -2.715281        -1.533509
 H         4.331652         0.142175        -0.625744
 H         4.489865        -0.532927        -2.164996
 H         1.812271         0.356232        -2.931007
