19
Iteration:  4065charge 0 multiplicity 1
 C         0.014338         0.026443        -0.114100
 C         1.480129        -0.115050         0.034814
 O         2.075679         1.264879         0.381636
 C         2.070743        -1.142427         1.077406
 C         2.986088        -1.891969         0.491822
 C         3.078263        -1.627229        -0.954929
 C         3.612730        -0.212667        -1.462429
 C         2.160156        -0.529401        -1.290445
 O         1.430831        -0.718121        -2.456125
 H        -0.311297        -0.001226        -1.215599
 H        -0.397846        -0.824572         0.358183
 H        -0.241885         1.017966         0.431047
 H         2.918771         1.280618        -0.078723
 H         1.893481        -1.006620         2.147208
 H         3.575498        -2.534704         1.076402
 H         3.030721        -2.415585        -1.690664
 H         4.242087         0.461178        -0.746662
 H         4.188135        -0.171211        -2.424225
 H         1.280115         0.148342        -2.825753
