19
Iteration:  4225charge 0 multiplicity 1
 C         0.019350        -0.214200        -0.001916
 C         1.530225        -0.029620        -0.012806
 O         1.847755         1.343296         0.226943
 C         2.200395        -0.970123         1.082096
 C         3.034913        -1.888789         0.456890
 C         2.886932        -1.774299        -1.039236
 C         3.795330        -0.550947        -1.405463
 C         2.247449        -0.521976        -1.258778
 O         1.449452        -0.351125        -2.434333
 H        -0.363454        -1.044683         0.629638
 H        -0.533483         0.606107         0.412999
 H        -0.515692        -0.401149        -0.983272
 H         2.722941         1.387214         0.673554
 H         2.086403        -1.002692         2.198894
 H         3.605638        -2.646189         1.007428
 H         2.838986        -2.689696        -1.705210
 H         4.457343        -0.150336        -0.637090
 H         4.141342        -0.318708        -2.426942
 H         1.340516         0.597553        -2.489716
