19
Iteration:  4026charge 0 multiplicity 1
 C         0.007144         0.171999         0.069235
 C         1.501807        -0.080219        -0.035119
 O         1.930324         1.283965         0.525752
 C         1.992570        -1.070375         0.925839
 C         2.960469        -1.812410         0.494925
 C         3.212355        -1.690384        -1.016686
 C         3.691620        -0.269179        -1.510650
 C         2.195338        -0.598733        -1.357112
 O         1.478065        -0.853357        -2.494691
 H        -0.343214         1.052703        -0.474253
 H        -0.651568        -0.747835        -0.082233
 H        -0.151118         0.423124         1.078512
 H         2.966532         1.272733         0.523615
 H         1.662978        -0.959864         1.991506
 H         3.763766        -2.456704         1.014315
 H         3.243179        -2.600169        -1.720509
 H         3.957445         0.472822        -0.817982
 H         4.061223        -0.313876        -2.555128
 H         1.333123        -0.049045        -3.079339
