19
Iteration:  3450
 C        -0.052389         0.135583         0.112984
 C         1.479737        -0.055622         0.002761
 O         1.874148         1.307692         0.310008
 C         2.160274        -1.027011         1.046917
 C         3.006799        -1.859069         0.504762
 C         3.196782        -1.677702        -1.006837
 C         3.744921        -0.410089        -1.443613
 C         2.200905        -0.645202        -1.343410
 O         1.423518        -0.711325        -2.561667
 H        -0.198000         1.159788        -0.152987
 H        -0.639880        -0.570940        -0.613841
 H        -0.326244        -0.191307         1.146859
 H         2.425379         1.269121         1.200629
 H         1.799629        -0.943273         2.127152
 H         3.552870        -2.678499         0.879098
 H         3.323946        -2.605911        -1.517539
 H         4.057375         0.388979        -0.667491
 H         4.014704        -0.184201        -2.493083
 H         1.496142         0.080772        -3.154717
