19
Iteration:  3146
 C         0.031400        -0.027781        -0.087930
 C         1.571933         0.024808        -0.048732
 O         1.991277         1.288985         0.431231
 C         2.138616        -0.961719         0.980707
 C         3.012483        -1.890834         0.513194
 C         3.153843        -1.748362        -0.947361
 C         3.692023        -0.391125        -1.454998
 C         2.213701        -0.613541        -1.334073
 O         1.287835        -0.624432        -2.372357
 H        -0.284082         0.480849        -0.963234
 H        -0.235112        -1.167088        -0.245128
 H        -0.431523         0.451455         0.801346
 H         1.688204         2.027049        -0.123602
 H         1.782846        -0.874103         1.996298
 H         3.389725        -2.799748         1.066979
 H         3.230620        -2.662550        -1.536330
 H         3.937632         0.444356        -0.689292
 H         4.067149        -0.369771        -2.469138
 H         1.737798        -0.060771        -3.001137
