19
Iteration:  1348charge 0 multiplicity 1
 C         0.063629        -0.195337         0.004007
 C         1.529242         0.014342         0.000761
 O         1.986447         1.492896         0.176591
 C         2.094192        -0.970166         1.006631
 C         2.818392        -1.976206         0.493867
 C         3.045390        -1.804855        -0.928106
 C         3.768757        -0.536097        -1.376960
 C         2.238304        -0.472240        -1.266543
 O         1.529423        -0.525438        -2.465404
 H        -0.539930         0.441447        -0.623751
 H        -0.189826        -1.194824        -0.209249
 H        -0.281538         0.106142         1.037133
 H         1.529347         1.870955         0.934674
 H         1.834843        -0.871732         2.079520
 H         3.112116        -2.945559         0.858077
 H         2.857103        -2.609099        -1.649861
 H         4.146436        -0.010928        -0.578185
 H         4.424831        -0.458681        -2.276085
 H         1.283355         0.290024        -2.944527
