19
Iteration:  2688charge 0 multiplicity 1
 C         0.067007        -0.141875        -0.002582
 C         1.637981         0.053782         0.007195
 O         1.807004         1.440325         0.359617
 C         2.265997        -0.877615         1.012207
 C         2.816577        -1.990214         0.458571
 C         2.998768        -1.757737        -1.018963
 C         3.801512        -0.601146        -1.431412
 C         2.274725        -0.462573        -1.324632
 O         1.375137        -0.578135        -2.444293
 H        -0.541395         0.178455        -0.850421
 H        -0.116895        -1.171250         0.092787
 H        -0.374145         0.402572         0.874428
 H         2.736798         1.596043         0.567549
 H         1.919137        -0.773127         2.040297
 H         3.389682        -2.678704         1.043195
 H         2.967281        -2.662509        -1.617660
 H         4.406973        -0.078873        -0.760019
 H         4.175920        -0.836978        -2.492365
 H         1.280402         0.368592        -2.730661
