19
Iteration:   643charge 0 multiplicity 1
 C         0.025754        -0.133026        -0.068773
 C         1.579716         0.025126         0.040007
 O         1.966583         1.402131         0.162815
 C         2.119706        -0.932883         1.066102
 C         2.740152        -1.957400         0.521287
 C         3.016742        -1.697954        -0.926495
 C         3.760255        -0.426406        -1.360000
 C         2.231192        -0.533395        -1.228500
 O         1.560023        -0.541821        -2.518560
 H        -0.552149        -0.292366         0.892646
 H        -0.303820         0.791301        -0.604295
 H        -0.121942        -1.042000        -0.716342
 H         2.297000         1.628580         0.997038
 H         1.768473        -0.988453         2.148477
 H         3.009805        -2.910440         1.053039
 H         3.145102        -2.513509        -1.686347
 H         4.208486         0.271746        -0.674376
 H         4.195813        -0.527141        -2.343009
 H         1.365129        -1.490730        -2.687058
