19
Iteration:  4474
 C         0.064927        -0.246077         0.068123
 C         1.597348        -0.027669         0.034808
 O         1.719198         1.338475         0.354160
 C         2.271414        -0.945327         1.046530
 C         2.994000        -1.921143         0.450763
 C         2.993463        -1.849502        -0.979351
 C         3.717699        -0.624891        -1.473161
 C         2.189243        -0.495920        -1.275145
 O         1.533504        -0.203481        -2.559441
 H        -0.286865        -1.329854        -0.019678
 H        -0.325314         0.262200         1.079247
 H        -0.454569         0.375597        -0.713433
 H         2.327944         1.853906        -0.289240
 H         2.148553        -0.753245         2.045337
 H         3.499976        -2.663016         0.951944
 H         3.123028        -2.717180        -1.562061
 H         4.429379        -0.270666        -0.679995
 H         4.007962        -0.826804        -2.501207
 H         0.664422         0.052824        -2.281136
