19
Iteration:  2867
 C        -0.049005         0.054440         0.109767
 C         1.458891        -0.164577         0.050319
 O         1.885254         1.272202         0.182308
 C         2.176686        -0.990946         1.088934
 C         3.056711        -1.841617         0.521196
 C         3.126200        -1.814205        -0.993534
 C         3.588767        -0.416959        -1.426147
 C         2.149659        -0.581950        -1.260897
 O         1.532752        -0.487689        -2.559545
 H        -0.357746         0.505150        -0.847520
 H        -0.543601        -0.910990         0.314506
 H        -0.204422         0.627762         0.964045
 H         2.804781         1.154470         0.376602
 H         1.817303        -0.993429         2.154071
 H         3.656169        -2.623850         0.961812
 H         3.316963        -2.652813        -1.577116
 H         4.179464         0.120447        -0.718479
 H         3.945039        -0.326761        -2.528576
 H         1.711993         0.420285        -2.926679
