19
Iteration:  2508charge 0 multiplicity 1
 C         0.075165        -0.176070        -0.118710
 C         1.592348        -0.031700         0.058741
 O         1.784491         1.426131         0.230354
 C         2.294624        -0.841455         1.103645
 C         2.967014        -1.915891         0.620046
 C         2.914094        -1.895656        -0.914485
 C         3.667530        -0.675615        -1.578381
 C         2.226800        -0.562314        -1.227498
 O         1.451404        -0.302624        -2.414239
 H        -0.251718         0.129231        -1.061181
 H        -0.123534        -1.333221        -0.197131
 H        -0.372408         0.355486         0.736932
 H         2.758441         1.522631         0.545855
 H         1.956185        -0.821305         2.107877
 H         3.674463        -2.554080         1.070712
 H         2.571252        -2.731037        -1.520005
 H         4.411050        -0.059716        -1.088657
 H         3.786336        -0.613754        -2.755358
 H         2.069859         0.130928        -2.992451
