19
Iteration:  1768charge 0 multiplicity 1
 C         0.060991        -0.103462        -0.176027
 C         1.607157        -0.001303         0.043051
 O         2.004817         1.318857         0.259234
 C         2.149952        -1.036209         1.134451
 C         2.952319        -1.911575         0.590395
 C         2.968082        -1.778312        -0.949320
 C         3.732894        -0.514328        -1.520600
 C         2.215932        -0.575856        -1.254924
 O         1.373751        -0.368789        -2.363559
 H        -0.345245         0.273742        -1.148001
 H        -0.296836        -1.137632        -0.148275
 H        -0.430970         0.412168         0.673007
 H         1.296725         2.057704         0.109300
 H         1.847041        -0.896588         2.127028
 H         3.515408        -2.673325         1.210540
 H         2.954372        -2.722729        -1.505625
 H         4.483034         0.138645        -1.053814
 H         3.809678        -0.694205        -2.712339
 H         1.980771        -0.096524        -3.058516
