19
Iteration:  2369
 C         0.063827        -0.103420        -0.190537
 C         1.597010        -0.018040         0.092486
 O         2.056324         1.354723         0.326062
 C         2.165982        -1.011164         1.097605
 C         2.996325        -1.895665         0.528865
 C         2.973146        -1.736322        -0.883041
 C         3.636256        -0.412717        -1.538636
 C         2.160153        -0.546577        -1.303838
 O         1.336938        -0.553483        -2.378407
 H        -0.181586         0.791184        -0.764143
 H        -0.154816        -0.919764        -0.972889
 H        -0.687125        -0.104048         0.555712
 H         2.969362         1.329272         0.245654
 H         1.709191        -1.091690         2.130420
 H         3.531793        -2.604440         1.154058
 H         3.046727        -2.588756        -1.496336
 H         4.285377         0.213450        -0.917868
 H         3.890934        -0.616804        -2.598435
 H         1.298465         0.266122        -2.903896
