19
Iteration:  2015charge 0 multiplicity 1
 C         0.122533        -0.103804        -0.132300
 C         1.635450        -0.066974         0.022311
 O         1.918057         1.404365         0.261475
 C         2.155791        -1.009461         1.083813
 C         2.942834        -1.916344         0.545324
 C         2.937950        -1.788195        -0.934105
 C         3.716493        -0.508300        -1.462722
 C         2.257285        -0.535076        -1.327433
 O         1.294711        -0.349023        -2.381046
 H        -0.485147         0.518728        -0.835117
 H        -0.103421        -1.186715        -0.291010
 H        -0.351194         0.169818         0.799292
 H         2.881195         1.494713         0.479945
 H         2.118728        -0.564775         2.091008
 H         3.435180        -2.785070         1.000676
 H         2.975705        -2.707122        -1.500326
 H         4.396725        -0.023771        -0.766357
 H         4.306902        -0.700813        -2.425043
 H         1.305815        -1.140066        -2.958151
