19
Iteration:    20
 C        -0.047296        -0.095185         0.058304
 C         1.489642        -0.025738        -0.018154
 O         1.929141         1.404507         0.310961
 C         2.091770        -1.001317         1.012645
 C         2.919072        -1.916641         0.516627
 C         3.080735        -1.744730        -0.967594
 C         3.841870        -0.530178        -1.346218
 C         2.290870        -0.467038        -1.361209
 O         1.381806        -0.469022        -2.611036
 H        -0.343292         0.529550         0.863495
 H        -0.589093         0.313631        -0.792342
 H        -0.415399        -1.133904         0.408784
 H         2.571771         1.152095         1.002675
 H         2.005938        -0.689634         2.099862
 H         3.714463        -2.421661         1.103843
 H         3.161053        -2.618570        -1.614689
 H         4.344484         0.012584        -0.595141
 H         4.411311        -0.538436        -2.317579
 H         1.272355        -1.383773        -2.884617
