19
Iteration:    23
 C        -0.050060        -0.089031         0.078988
 C         1.487236        -0.016966        -0.023891
 O         1.915057         1.396152         0.329957
 C         2.081197        -0.977077         1.001809
 C         2.949159        -1.910984         0.508944
 C         3.051458        -1.745486        -0.963173
 C         3.852768        -0.521513        -1.367606
 C         2.286579        -0.487779        -1.367226
 O         1.391474        -0.472106        -2.604364
 H        -0.359203         0.599364         0.875219
 H        -0.598444         0.203987        -0.826904
 H        -0.368305        -1.076591         0.380637
 H         2.728236         1.129183         0.930679
 H         1.956309        -0.697865         2.015375
 H         3.603670        -2.553075         1.084240
 H         3.217359        -2.634548        -1.553507
 H         4.355099        -0.016387        -0.506257
 H         4.394495        -0.519453        -2.267340
 H         1.373688        -1.412361        -2.948837
