19
Iteration:   607
 C        -0.082544         0.052711         0.037714
 C         1.486712        -0.033633        -0.003366
 O         2.002866         1.249160         0.183164
 C         2.039622        -0.994767         0.978571
 C         2.944266        -1.914194         0.559089
 C         3.107120        -1.771220        -0.888469
 C         3.729985        -0.446255        -1.240062
 C         2.210892        -0.682694        -1.379611
 O         1.614797        -0.454122        -2.589955
 H        -0.480887         0.752099         0.828206
 H        -0.472816         0.406316        -0.935112
 H        -0.482642        -0.919464         0.214377
 H         1.461109         1.678047         0.820550
 H         1.914353        -0.677078         1.975087
 H         3.665426        -2.385584         1.197348
 H         3.432250        -2.489471        -1.646359
 H         4.082765         0.371542        -0.585264
 H         4.251210        -0.610306        -2.232010
 H         0.642159        -0.564912        -2.687945
