19
Iteration:  1148charge 0 multiplicity 1
 C         0.034019        -0.059922        -0.078134
 C         1.502830        -0.003722        -0.023231
 O         1.788671         1.263559         0.442074
 C         2.097675        -0.866390         1.045371
 C         2.859672        -1.833139         0.546071
 C         3.014231        -1.796086        -0.928899
 C         3.850052        -0.561590        -1.492878
 C         2.300186        -0.479292        -1.368993
 O         1.519856        -0.535251        -2.521867
 H        -0.298041         0.860690        -0.573407
 H        -0.644537        -0.890228        -0.449975
 H        -0.274555        -0.001778         0.920139
 H         2.488151         1.188628         1.150469
 H         2.064626        -0.570212         2.117805
 H         3.441018        -2.520360         1.218591
 H         3.001583        -2.807339        -1.381621
 H         4.611741         0.059752        -0.999157
 H         3.857788        -0.769650        -2.632129
 H         2.019552        -0.192083        -3.268267
