19
Iteration:  1313
 C         0.143979        -0.219237        -0.270550
 C         1.540811        -0.046361         0.055590
 O         1.903730         1.387316         0.272933
 C         2.137299        -0.895169         1.130601
 C         2.886262        -1.903384         0.624723
 C         2.958359        -1.813514        -0.901496
 C         3.744927        -0.608365        -1.519881
 C         2.220027        -0.476564        -1.326845
 O         1.434253        -0.395267        -2.435334
 H        -0.124846         0.483376        -1.048597
 H        -0.019187        -1.283224        -0.407617
 H        -0.342230        -0.022612         0.691642
 H         2.086912         1.568315         1.212070
 H         2.135560        -0.605169         2.137117
 H         3.446880        -2.591748         1.192085
 H         2.840887        -2.759715        -1.444049
 H         4.244320         0.002263        -0.724630
 H         4.121048        -0.784621        -2.545823
 H         1.732156         0.483117        -2.754723
