19
Iteration:  2005
 C         0.070473        -0.140157        -0.029528
 C         1.584148        -0.056506         0.044611
 O         1.965309         1.363852         0.161561
 C         2.188448        -0.941696         1.080521
 C         2.912410        -1.975819         0.538117
 C         2.981995        -1.792374        -0.925097
 C         3.660411        -0.494931        -1.440835
 C         2.195821        -0.522001        -1.304719
 O         1.372290        -0.337995        -2.396043
 H         0.020018         0.580882        -0.889604
 H        -0.337311        -1.085350        -0.405187
 H        -0.437671         0.145174         0.905670
 H         2.858189         1.385389         0.462017
 H         2.121020        -0.797625         2.182537
 H         3.462359        -2.760622         1.084118
 H         3.173065        -2.551181        -1.651039
 H         4.213288         0.103330        -0.697404
 H         4.044996        -0.517343        -2.507603
 H         1.461933        -1.015378        -3.068661
