19
Iteration:  1117charge 0 multiplicity 1
 C         0.114933        -0.187658        -0.188743
 C         1.594522         0.074642         0.072931
 O         1.828953         1.495120         0.355831
 C         2.120292        -0.981639         1.035203
 C         2.891937        -1.919002         0.502172
 C         3.032345        -1.855182        -0.917028
 C         3.687076        -0.564612        -1.333352
 C         2.243065        -0.465541        -1.335125
 O         1.446257        -0.523604        -2.472733
 H        -0.361351         0.748762        -0.562493
 H        -0.045637        -0.892714        -1.081747
 H        -0.275432        -0.427445         0.799396
 H         2.832462         1.475648         0.405700
 H         1.944632        -0.955168         2.141346
 H         3.391218        -2.773118         1.054811
 H         2.881488        -2.805050        -1.485165
 H         4.217063         0.107454        -0.651102
 H         4.076320        -0.505425        -2.405780
 H         1.831482         0.085048        -3.153032
