19
Iteration:  2778
 C         0.055082        -0.135945         0.141346
 C         1.579100         0.001352        -0.057254
 O         1.738732         1.454798         0.304340
 C         2.263321        -0.887885         1.024315
 C         2.935199        -1.960225         0.468778
 C         2.973807        -1.810373        -0.966595
 C         3.763370        -0.628823        -1.402207
 C         2.210602        -0.571688        -1.299163
 O         1.484416        -0.461972        -2.552000
 H        -0.313333         0.807338        -0.054241
 H        -0.339542        -0.888388        -0.607436
 H        -0.212508        -0.542923         1.098952
 H         2.638474         1.753127         0.259130
 H         2.085134        -0.496022         2.026869
 H         3.291678        -2.891578         0.989280
 H         2.899237        -2.678906        -1.683473
 H         4.415859        -0.036057        -0.676279
 H         4.166401        -0.697413        -2.382541
 H         1.539589         0.517792        -2.704546
