19
Iteration:  4598
 C        -0.017529         0.087990        -0.028988
 C         1.524559        -0.030920         0.014739
 O         2.083215         1.160007         0.475215
 C         2.025838        -1.094502         0.960600
 C         3.026216        -1.798301         0.452968
 C         3.148526        -1.672609        -1.008404
 C         3.682714        -0.313764        -1.469311
 C         2.171050        -0.561452        -1.347888
 O         1.314885        -0.693723        -2.450174
 H        -0.604306        -0.853951         0.102373
 H        -0.410651         0.738881         0.709975
 H        -0.283733         0.655726        -1.008034
 H         2.742893         1.135412         1.288784
 H         1.833036        -0.938369         2.020473
 H         3.816995        -2.450618         0.853829
 H         3.558730        -2.516408        -1.668237
 H         4.161644         0.381632        -0.763423
 H         3.765450        -0.231117        -2.530253
 H         1.424768         0.014600        -3.070543
