19
Iteration:  2623charge 0 multiplicity 1
 C        -0.015760         0.003525        -0.058543
 C         1.543544        -0.090918         0.001350
 O         1.970355         1.302026         0.307427
 C         2.121350        -0.935719         1.005812
 C         2.996100        -1.860010         0.556878
 C         3.057371        -1.838383        -0.962584
 C         3.760856        -0.439051        -1.440125
 C         2.175632        -0.654158        -1.318431
 O         1.332706        -0.502869        -2.430774
 H        -0.352558         0.561561        -0.937310
 H        -0.355622        -0.960795        -0.100896
 H        -0.320854         0.517372         0.861306
 H         2.989775         1.454848         0.250493
 H         1.775005        -0.753984         2.046403
 H         3.729474        -2.352697         1.174734
 H         3.103401        -2.661580        -1.611639
 H         4.229050         0.005555        -0.606131
 H         4.310106        -0.350289        -2.415029
 H         1.479510         0.329681        -2.881615
