19
Iteration:  3287charge 0 multiplicity 1
 C         0.157277        -0.379914        -0.037053
 C         1.642689        -0.003378        -0.002244
 O         1.851540         1.412244         0.150771
 C         2.263276        -0.847828         1.002018
 C         2.850391        -1.936591         0.583195
 C         2.966825        -1.819571        -0.855211
 C         3.780720        -0.629067        -1.438718
 C         2.249827        -0.419698        -1.324348
 O         1.350692        -0.335723        -2.427943
 H        -0.402186         0.161501        -0.722029
 H        -0.042524        -1.543326        -0.292627
 H        -0.307580        -0.250849         0.997991
 H         1.562314         1.840938         0.942373
 H         2.186005        -0.565455         2.043955
 H         3.217928        -2.797027         1.152008
 H         2.900440        -2.650610        -1.676485
 H         4.230711         0.065185        -0.703559
 H         4.323892        -0.785535        -2.433702
 H         1.278665         0.549553        -2.793238
