19
Iteration:  4034
 C         0.026131         0.216863         0.062006
 C         1.463584        -0.052050         0.008459
 O         1.936326         1.247711         0.540755
 C         1.993349        -1.056121         0.964803
 C         3.007840        -1.848497         0.465558
 C         3.257582        -1.630086        -0.990952
 C         3.646449        -0.270038        -1.509227
 C         2.163053        -0.642318        -1.345464
 O         1.448806        -0.856300        -2.560823
 H        -0.487090         0.768222        -0.819872
 H        -0.447667        -0.703999        -0.006819
 H        -0.224241         0.636628         1.085780
 H         2.912656         1.353278         0.278076
 H         1.886523        -1.056342         2.043406
 H         3.408172        -2.706281         1.037881
 H         3.360732        -2.566455        -1.567313
 H         4.203889         0.478702        -0.766115
 H         4.215160        -0.288360        -2.513723
 H         1.422843         0.001648        -3.091107
