19
Iteration:  4186
 C         0.154453        -0.359630         0.007460
 C         1.704151        -0.017357         0.032518
 O         1.601838         1.394269         0.213956
 C         2.335345        -0.874884         1.124239
 C         2.886444        -1.958033         0.545687
 C         2.817095        -1.854354        -0.988881
 C         3.745436        -0.655628        -1.485505
 C         2.268961        -0.572661        -1.315252
 O         1.518216        -0.135075        -2.441655
 H         0.155521        -1.435687         0.395931
 H        -0.229204         0.353100         0.689254
 H        -0.254135        -0.472270        -1.047594
 H         2.511365         1.868510         0.071880
 H         2.113804        -0.723375         2.131242
 H         3.059887        -2.927765         1.034970
 H         2.778258        -2.705305        -1.672815
 H         4.509383        -0.171841        -0.794499
 H         4.002326        -0.483045        -2.580965
 H         1.594388         0.878908        -2.410170
