19
Iteration:    28
 C        -0.051548        -0.061514         0.106052
 C         1.501927         0.005983        -0.040406
 O         1.899432         1.356010         0.376346
 C         2.082658        -0.937826         0.969607
 C         2.983947        -1.879339         0.500138
 C         3.006726        -1.751687        -0.957429
 C         3.850128        -0.491901        -1.381425
 C         2.249488        -0.542529        -1.386174
 O         1.431651        -0.483777        -2.574968
 H        -0.361203         0.697426         0.868223
 H        -0.561837         0.014969        -0.883633
 H        -0.310352        -1.120332         0.351449
 H         2.818054         1.285485         0.605775
 H         1.812321        -0.746572         2.053021
 H         3.365426        -2.800817         1.047418
 H         3.252873        -2.678451        -1.518842
 H         4.323243        -0.075624        -0.491662
 H         4.413984        -0.478813        -2.365581
 H         1.577860        -1.325304        -3.000857
