19
Iteration:  2048charge 0 multiplicity 1
 C         0.028309        -0.054543        -0.068425
 C         1.582619         0.016432         0.064681
 O         1.823782         1.434239         0.523250
 C         2.187745        -0.899552         1.033395
 C         2.941669        -1.888925         0.459086
 C         2.965165        -1.831159        -0.992363
 C         3.776960        -0.610790        -1.610495
 C         2.267738        -0.495035        -1.329732
 O         1.456695        -0.484928        -2.468035
 H        -0.273551         0.588227        -0.942253
 H        -0.267564        -1.065432        -0.333480
 H        -0.435857         0.181147         0.883393
 H         2.712934         1.591329         0.339967
 H         2.081621        -0.482188         2.104916
 H         3.250380        -2.716219         1.131984
 H         2.745792        -2.780360        -1.435693
 H         4.585236        -0.170750        -0.960843
 H         3.982870        -0.934797        -2.625310
 H         1.239887        -1.414140        -2.497365
