19
Iteration:  4462
 C         0.064351        -0.280888         0.074713
 C         1.554316        -0.075898         0.014687
 O         1.750176         1.383400         0.309516
 C         2.254691        -0.961916         1.060229
 C         2.954229        -1.909699         0.501011
 C         2.947742        -1.843370        -1.053468
 C         3.791793        -0.646574        -1.416019
 C         2.243554        -0.544306        -1.369563
 O         1.493335        -0.183684        -2.468832
 H        -0.142920        -1.377595         0.205848
 H        -0.418296         0.283373         1.075307
 H        -0.414888         0.110672        -0.817938
 H         2.371081         1.721046        -0.418826
 H         2.248798        -0.707172         2.060471
 H         3.710618        -2.500961         0.939676
 H         2.788271        -2.751300        -1.660925
 H         4.371697        -0.011256        -0.724325
 H         4.212125        -0.466027        -2.380199
 H         0.761495         0.468339        -2.252323
