19
Iteration:   691charge 0 multiplicity 1
 C         0.052844        -0.016202        -0.154433
 C         1.509684         0.002893         0.000692
 O         1.774875         1.313031         0.360491
 C         2.105553        -0.910957         1.110203
 C         2.970200        -1.840753         0.630814
 C         3.005031        -1.827469        -0.877456
 C         3.762577        -0.590904        -1.419509
 C         2.269602        -0.575215        -1.352479
 O         1.475992        -0.418327        -2.549173
 H        -0.431850        -0.331244         0.766938
 H        -0.263397         1.000910        -0.418623
 H        -0.133588        -0.831602        -0.892043
 H         2.670643         1.548849        -0.046206
 H         1.965810        -0.751000         2.150615
 H         3.462341        -2.636932         1.168835
 H         3.204118        -2.802337        -1.258400
 H         4.383217        -0.040561        -0.710554
 H         4.238184        -0.736411        -2.440615
 H         1.886583        -0.815225        -3.331355
