19
Iteration:  1665
 C         0.081603        -0.055843         0.013593
 C         1.595004        -0.021666        -0.054277
 O         1.887992         1.338547         0.128050
 C         2.166528        -1.000713         1.077158
 C         2.826036        -1.986825         0.540579
 C         3.076135        -1.752292        -0.926279
 C         3.801873        -0.526867        -1.276175
 C         2.246792        -0.536589        -1.290170
 O         1.329083        -0.445211        -2.464925
 H        -0.313688         0.890802        -0.371489
 H        -0.350351        -0.913874        -0.552362
 H        -0.239004        -0.181267         1.115440
 H         2.709735         1.522638        -0.272833
 H         1.602708        -1.018128         2.029790
 H         3.377063        -2.741441         1.158125
 H         3.149209        -2.429100        -1.813189
 H         4.249634         0.105558        -0.522430
 H         4.184307        -0.530015        -2.329919
 H         1.737018         0.376991        -2.847088
