19
Iteration:  4047
 C        -0.073285         0.152592         0.002358
 C         1.526795        -0.022240         0.070974
 O         2.009620         1.230999         0.491969
 C         2.111517        -1.117832         1.049073
 C         2.976728        -1.886932         0.507284
 C         3.191710        -1.609775        -0.939662
 C         3.640986        -0.247240        -1.468317
 C         2.164514        -0.565610        -1.392675
 O         1.413030        -0.835012        -2.597102
 H        -0.221450         0.608113        -0.995696
 H        -0.652472        -0.782223         0.242028
 H        -0.391826         0.937381         0.649625
 H         2.872895         1.406311         0.078410
 H         1.631513        -1.119680         2.054623
 H         3.553726        -2.794706         1.002110
 H         3.582177        -2.377443        -1.698704
 H         4.174795         0.411153        -0.738101
 H         3.907924        -0.270857        -2.579871
 H         1.424855         0.002609        -3.055583
