19
Iteration:  3300charge 0 multiplicity 1
 C         0.122264        -0.355020         0.112260
 C         1.590073         0.019726        -0.018446
 O         1.863822         1.389015         0.077473
 C         2.249057        -0.844656         1.132520
 C         2.840672        -1.916684         0.554078
 C         2.920909        -1.779177        -0.991314
 C         3.763355        -0.558040        -1.375393
 C         2.252736        -0.541242        -1.342525
 O         1.454347        -0.362267        -2.530311
 H        -0.540236         0.323028        -0.377802
 H         0.050510        -1.425853        -0.298555
 H        -0.125927        -0.338323         1.176927
 H         1.581079         1.670867         1.020374
 H         2.026092        -0.612346         2.172508
 H         3.299459        -2.707411         1.035303
 H         2.898650        -2.726659        -1.564465
 H         4.425375        -0.139836        -0.664443
 H         4.190818        -0.580774        -2.404844
 H         1.350372         0.625446        -2.502339
