19
Iteration:  3343
 C        -0.071273        -0.052210         0.284517
 C         1.532494        -0.114058        -0.007530
 O         1.837332         1.361464         0.033256
 C         2.293187        -1.016520         1.056866
 C         2.958583        -1.959255         0.462598
 C         2.998512        -1.790260        -0.995270
 C         3.760197        -0.432269        -1.290584
 C         2.151057        -0.572095        -1.305235
 O         1.564074        -0.457765        -2.570949
 H        -0.553579         0.789962        -0.215171
 H        -0.449797        -1.145873        -0.081454
 H        -0.178841         0.032703         1.398742
 H         1.150344         1.700171         0.743431
 H         2.307128        -0.806461         2.148085
 H         3.618196        -2.621259         0.896166
 H         3.096815        -2.521090        -1.800745
 H         4.287027        -0.027977        -0.431147
 H         4.214268        -0.227313        -2.300561
 H         1.729317         0.410572        -3.016656
