19
Iteration:   299charge 0 multiplicity 1
 C         0.009150        -0.103916         0.017780
 C         1.522440         0.054157        -0.017110
 O         1.874142         1.362906         0.301135
 C         2.020818        -0.963186         1.052599
 C         2.817921        -1.976969         0.506273
 C         3.043840        -1.726577        -0.978555
 C         3.847237        -0.479491        -1.360245
 C         2.284308        -0.481146        -1.300065
 O         1.588658        -0.586515        -2.551331
 H        -0.541989         0.756774         0.333016
 H        -0.406749        -0.305169        -0.974818
 H        -0.204460        -0.974875         0.712107
 H         2.832448         1.548515         0.034908
 H         1.660549        -0.792545         2.065691
 H         3.284541        -2.754965         1.114302
 H         2.908373        -2.624809        -1.581246
 H         4.435108        -0.067707        -0.471758
 H         4.236208        -0.410492        -2.376589
 H         0.960377         0.136834        -2.686166
