19
Iteration:  4886charge 0 multiplicity 1
 C        -0.071132        -0.081033        -0.033605
 C         1.532819        -0.019932        -0.015509
 O         2.064159         1.316546         0.486705
 C         2.108914        -1.007852         1.014582
 C         2.989003        -1.816107         0.441370
 C         3.090884        -1.713903        -1.021611
 C         3.666705        -0.364087        -1.438334
 C         2.208398        -0.463191        -1.378068
 O         1.356956        -0.699285        -2.423185
 H        -0.541193        -0.248793        -1.066458
 H        -0.468836        -0.917957         0.716012
 H        -0.463855         0.901793         0.309503
 H         3.062909         1.220047         0.577862
 H         1.974985        -1.053791         2.043097
 H         3.450810        -2.670098         0.937556
 H         3.191770        -2.641029        -1.660977
 H         4.325202         0.322270        -0.831680
 H         4.043703        -0.393071        -2.491820
 H         1.490396         0.003547        -3.150675
