19
Iteration:  4452charge 0 multiplicity 1
 C         0.028664        -0.350489         0.058789
 C         1.563525        -0.077650         0.006733
 O         1.796802         1.383247         0.232697
 C         2.241927        -0.903922         1.064333
 C         2.964550        -1.963422         0.490654
 C         2.868703        -1.846595        -1.060186
 C         3.821223        -0.547229        -1.426309
 C         2.281718        -0.535374        -1.312139
 O         1.463805        -0.197995        -2.424926
 H        -0.105862        -1.437256         0.338054
 H        -0.369530         0.332570         0.975286
 H        -0.565513        -0.087397        -0.834823
 H         2.547256         1.495501        -0.368864
 H         2.253797        -0.689894         2.070328
 H         3.586295        -2.570402         1.082227
 H         2.760506        -2.564379        -1.844339
 H         4.334101        -0.282637        -0.467802
 H         4.124498        -0.357690        -2.441154
 H         1.132026         0.707835        -2.082256
