19
Iteration:  1808
 C         0.025537        -0.121757         0.070490
 C         1.551359         0.020924        -0.123657
 O         1.988732         1.398489         0.281688
 C         2.266217        -0.861688         0.977892
 C         2.814041        -2.011763         0.507964
 C         2.991253        -1.826780        -0.944334
 C         3.761097        -0.456002        -1.298049
 C         2.171501        -0.634682        -1.298091
 O         1.381336        -0.446335        -2.465660
 H        -0.618357         0.737966        -0.035626
 H        -0.244121        -0.990992        -0.623304
 H        -0.034046        -0.389562         1.098272
 H         2.265020         1.815388        -0.496427
 H         1.926016        -0.856905         2.019687
 H         3.362478        -2.778333         0.980403
 H         3.275427        -2.556581        -1.680288
 H         4.156716         0.023922        -0.354148
 H         4.117673        -0.402618        -2.246423
 H         2.009028        -0.323226        -3.204737
