19
Iteration:  1207
 C         0.044428        -0.127714        -0.097498
 C         1.557937        -0.039399        -0.059947
 O         1.972794         1.242438         0.194562
 C         2.137628        -0.949777         1.017518
 C         2.753143        -2.033478         0.556307
 C         3.007407        -1.717601        -0.970008
 C         3.771075        -0.304875        -1.249998
 C         2.214865        -0.552868        -1.294059
 O         1.499910        -0.516017        -2.402098
 H        -0.332383         0.472202        -0.963424
 H        -0.377910        -1.110986        -0.077817
 H        -0.136582         0.688487         0.752439
 H         2.689573         1.477998        -0.500835
 H         1.927519        -0.589423         1.986960
 H         3.181203        -2.808368         1.121106
 H         3.205492        -2.460761        -1.738898
 H         4.221652         0.185019        -0.382180
 H         4.469140        -0.191456        -2.022069
 H         0.865296         0.220970        -2.464189
