19
Iteration:  4834
 C        -0.011967        -0.074392         0.077342
 C         1.555411        -0.062125        -0.007929
 O         1.847051         1.293690         0.265467
 C         2.276413        -0.954379         1.036709
 C         2.954063        -2.013508         0.493676
 C         3.093847        -1.724021        -1.004232
 C         3.744363        -0.417089        -1.418227
 C         2.173877        -0.578751        -1.336397
 O         1.346748        -0.436708        -2.445538
 H        -0.465302        -0.493597        -0.836807
 H        -0.360800        -0.600028         0.880508
 H        -0.265056         0.980844         0.180146
 H         2.754354         1.415968         0.312558
 H         1.973019        -0.905764         2.033265
 H         3.407632        -2.863343         0.976058
 H         3.250747        -2.622360        -1.641390
 H         4.179503         0.230986        -0.570876
 H         4.305856        -0.480364        -2.401118
 H         1.791041         0.323275        -2.925885
