19
Iteration:  1070
 C        -0.026274        -0.115464         0.098445
 C         1.530329        -0.110964        -0.037872
 O         1.833191         1.354429         0.094714
 C         2.080724        -0.962501         1.042266
 C         2.884385        -1.958396         0.545094
 C         3.083768        -1.818335        -0.965436
 C         3.783471        -0.554068        -1.238554
 C         2.217022        -0.577044        -1.327132
 O         1.591848        -0.267950        -2.553193
 H        -0.608735         0.334854        -0.730938
 H        -0.367641        -1.162166         0.060128
 H        -0.250245         0.409732         1.009691
 H         2.743570         1.496564        -0.008741
 H         1.927555        -0.740330         2.085588
 H         3.305940        -2.656055         1.221797
 H         3.476065        -2.637432        -1.565583
 H         4.460359        -0.216345        -0.392439
 H         4.149138        -0.516148        -2.277463
 H         0.835898         0.277273        -2.263600
