19
Iteration:  2760charge 0 multiplicity 1
 C         0.034390        -0.150370         0.220136
 C         1.553892        -0.063612         0.003192
 O         1.810027         1.272952         0.084143
 C         2.190420        -0.860329         1.080338
 C         2.912500        -1.868283         0.534711
 C         2.945076        -1.856220        -1.009743
 C         3.763245        -0.576347        -1.376988
 C         2.223647        -0.532433        -1.361065
 O         1.522834        -0.345998        -2.511692
 H        -0.513697         0.904675         0.227703
 H        -0.620217        -0.787465        -0.440223
 H        -0.259228        -0.506790         1.215003
 H         2.754828         1.319776         0.180876
 H         2.123485        -0.814932         2.196168
 H         3.665150        -2.494254         0.992698
 H         2.949184        -2.693520        -1.615447
 H         4.409134        -0.220725        -0.597460
 H         4.241480        -0.450425        -2.413213
 H         1.553889         0.611530        -2.786032
