19
Iteration:   740charge 0 multiplicity 1
 C         0.009389        -0.125746        -0.046614
 C         1.599240        -0.046121        -0.008987
 O         1.878649         1.353644         0.144864
 C         2.044798        -0.933200         1.115019
 C         2.833715        -1.879761         0.567511
 C         2.992956        -1.802831        -0.992171
 C         3.775726        -0.529225        -1.276720
 C         2.230474        -0.575409        -1.293711
 O         1.580531        -0.464164        -2.546034
 H        -0.329080         0.614837         0.686361
 H        -0.370187         0.172897        -1.000784
 H        -0.307901        -1.070235         0.351254
 H         2.815053         1.514977         0.234892
 H         1.899632        -0.722839         2.194703
 H         3.438956        -2.523242         1.212433
 H         3.029830        -2.719603        -1.575357
 H         4.362167         0.000036        -0.471063
 H         4.199732        -0.422827        -2.229721
 H         1.191672         0.436368        -2.548526
