19
Iteration:  1564
 C         0.049796        -0.123128        -0.043253
 C         1.572406        -0.002318         0.044468
 O         1.954138         1.411846         0.174899
 C         2.197065        -0.985029         1.115406
 C         2.808791        -2.008790         0.451502
 C         3.050761        -1.842605        -1.003906
 C         3.735342        -0.527407        -1.371996
 C         2.295923        -0.504363        -1.296139
 O         1.445049        -0.396632        -2.344947
 H        -0.336844         0.252709        -1.047888
 H        -0.290442        -1.148340         0.133592
 H        -0.393387         0.576770         0.775020
 H         1.021540         1.821094        -0.030709
 H         1.847452        -0.886170         2.201698
 H         3.049811        -2.981857         1.002668
 H         2.943561        -2.547434        -1.817252
 H         4.252092         0.085597        -0.558503
 H         4.196517        -0.420987        -2.308047
 H         1.925223        -0.259143        -3.160286
