19
Iteration:  4620charge 0 multiplicity 1
 C         0.044728         0.088403        -0.063971
 C         1.515881        -0.086023        -0.034715
 O         2.050133         1.270446         0.544335
 C         2.134511        -1.076505         1.059521
 C         2.972664        -1.896125         0.535000
 C         3.117465        -1.683941        -0.979284
 C         3.643031        -0.221177        -1.574404
 C         2.196206        -0.537367        -1.356261
 O         1.376106        -0.741345        -2.557732
 H        -0.474460        -0.887761        -0.008928
 H        -0.327392         0.529323         0.851653
 H        -0.423187         0.773862        -0.870208
 H         2.844212         1.068346         0.938884
 H         1.779302        -1.062128         2.075550
 H         3.555352        -2.745015         0.978777
 H         2.983989        -2.418265        -1.865693
 H         3.972712         0.371907        -0.726882
 H         4.199393        -0.360551        -2.458540
 H         0.696171         0.016645        -2.514549
