19
Iteration:  3806
 C         0.018555        -0.118384         0.076337
 C         1.528381        -0.048887        -0.017300
 O         1.919371         1.352146         0.306388
 C         2.151763        -0.866300         1.014072
 C         2.954991        -1.871485         0.512705
 C         3.067942        -1.818962        -0.997714
 C         3.689990        -0.535699        -1.451767
 C         2.253584        -0.575484        -1.302951
 O         1.468694        -0.523288        -2.510185
 H        -0.408240         0.933135        -0.209058
 H        -0.540913        -0.742094        -0.509263
 H        -0.338563        -0.358230         1.114219
 H         1.058718         1.807856         0.653022
 H         2.025271        -0.640608         2.064692
 H         3.703346        -2.470585         1.106061
 H         3.057669        -2.695231        -1.658356
 H         4.247868        -0.091469        -0.580371
 H         4.255474        -0.387886        -2.450427
 H         1.866200         0.207449        -3.057369
