19
Iteration:  4166charge 0 multiplicity 1
 C         0.161490        -0.508682         0.144846
 C         1.562665         0.025175         0.023789
 O         1.648570         1.427813         0.226312
 C         2.352315        -0.846783         1.049521
 C         2.805110        -1.956372         0.465019
 C         2.850293        -1.843787        -0.972360
 C         3.749560        -0.747983        -1.376314
 C         2.282799        -0.355900        -1.344596
 O         1.539848        -0.170173        -2.517292
 H         0.183445        -1.572525         0.123884
 H        -0.196201         0.021801         1.055194
 H        -0.286042        -0.114254        -0.708747
 H         2.498302         1.601010        -0.139147
 H         2.362112        -0.665184         2.078139
 H         3.432278        -2.659511         1.022718
 H         2.651801        -2.586241        -1.711917
 H         4.421046        -0.439279        -0.572306
 H         4.165747        -0.845547        -2.376852
 H         1.683383         0.771933        -2.779054
