19
Iteration:  2860
 C        -0.063548        -0.006080         0.062270
 C         1.484939        -0.134584         0.057472
 O         1.908649         1.316576         0.235487
 C         2.150913        -0.989647         1.094402
 C         3.046145        -1.802480         0.463360
 C         3.174034        -1.793989        -0.969540
 C         3.660113        -0.483438        -1.458316
 C         2.114763        -0.642454        -1.261301
 O         1.470611        -0.465209        -2.560619
 H        -0.617254         0.479394        -0.836935
 H        -0.650962        -0.872806         0.209359
 H        -0.285647         0.758016         0.892385
 H         2.794349         1.369247         0.500928
 H         2.047423        -1.044493         2.149356
 H         3.505635        -2.653462         1.007517
 H         3.472921        -2.777537        -1.464392
 H         4.219084         0.151864        -0.721011
 H         3.919697        -0.419224        -2.467070
 H         1.827308         0.422226        -2.717549
