19
Iteration:   351
 C        -0.053621        -0.115733        -0.202011
 C         1.457810        -0.051870         0.016023
 O         1.928785         1.296669         0.173312
 C         2.199758        -1.006510         1.058081
 C         3.039267        -1.886612         0.568818
 C         3.022854        -1.823634        -0.921281
 C         3.627585        -0.501938        -1.318265
 C         2.163931        -0.498659        -1.210098
 O         1.531223        -0.338797        -2.449047
 H        -0.463866         0.799703         0.285166
 H        -0.362752         0.000867        -1.256774
 H        -0.490725        -0.994609         0.206087
 H         2.669242         1.379018         0.797260
 H         1.845092        -0.875501         2.068649
 H         3.599935        -2.585047         1.191517
 H         3.010704        -2.778867        -1.421815
 H         4.286325         0.109940        -0.656099
 H         4.005510        -0.548701        -2.288953
 H         2.159423        -0.399459        -3.191342
