19
Iteration:  3609
 C         0.099695        -0.353286         0.075130
 C         1.611886        -0.061589         0.041753
 O         1.792893         1.457772         0.002725
 C         2.320163        -0.884578         1.082029
 C         2.850606        -1.994753         0.547037
 C         2.976359        -1.824502        -0.942595
 C         3.706435        -0.550588        -1.287781
 C         2.199043        -0.561844        -1.299123
 O         1.465837        -0.289362        -2.530527
 H        -0.482945         0.438047        -0.637696
 H        -0.161907        -1.309506        -0.349779
 H        -0.449945        -0.147462         1.075773
 H         2.440510         1.779353         0.717864
 H         2.136778        -0.662857         2.170154
 H         3.215575        -2.803484         1.073592
 H         3.148999        -2.615818        -1.652908
 H         4.427632        -0.090321        -0.525869
 H         4.095374        -0.407410        -2.259942
 H         1.430272         0.709993        -2.559648
