19
Iteration:  1219
 C         0.044614        -0.107859        -0.027596
 C         1.582482        -0.060923        -0.067493
 O         1.985717         1.351680         0.192147
 C         2.105824        -0.950310         1.003198
 C         2.729495        -2.018961         0.482438
 C         2.992593        -1.805499        -0.896416
 C         3.842215        -0.264408        -1.175130
 C         2.308789        -0.551739        -1.313227
 O         1.450895        -0.539897        -2.512384
 H        -0.533117         0.355536        -0.863442
 H        -0.251113        -1.140927         0.049417
 H        -0.414484         0.208235         1.031974
 H         2.564811         1.604774        -0.603715
 H         1.976868        -0.837371         2.043446
 H         3.042674        -2.846489         1.014102
 H         3.184878        -2.604419        -1.606140
 H         4.200297         0.124509        -0.270450
 H         4.205648        -0.149577        -2.202062
 H         0.885134         0.219413        -2.325908
