19
Iteration:  4777
 C         0.093476        -0.318185         0.054610
 C         1.576093        -0.048824         0.015626
 O         1.730203         1.413530         0.290389
 C         2.288336        -0.913743         1.120402
 C         2.875226        -2.032352         0.535661
 C         2.958155        -1.817652        -1.038948
 C         3.723332        -0.641796        -1.498686
 C         2.286187        -0.444821        -1.266815
 O         1.515515        -0.224072        -2.536391
 H        -0.069886        -1.391349        -0.028433
 H        -0.301488         0.176941         1.011384
 H        -0.358299         0.158121        -0.780041
 H         2.703581         1.675195        -0.000507
 H         2.287205        -0.451009         2.173688
 H         3.420357        -2.874739         1.106178
 H         2.837519        -2.739540        -1.605646
 H         4.479076        -0.020047        -0.926388
 H         3.795837        -0.476247        -2.588775
 H         0.776659         0.335064        -2.272566
