19
Iteration:  2100
 C        -0.014361        -0.036307         0.107130
 C         1.548358        -0.029940        -0.065914
 O         1.969117         1.333207         0.147634
 C         2.177301        -0.933691         1.046735
 C         2.879454        -1.922926         0.501096
 C         3.059801        -1.802664        -0.989560
 C         3.704760        -0.491803        -1.317101
 C         2.184543        -0.640731        -1.345208
 O         1.467487        -0.432497        -2.511976
 H        -0.666792         0.633339        -0.449723
 H        -0.317133        -1.111416        -0.042026
 H        -0.122073         0.059676         1.138757
 H         2.909506         1.268816         0.242441
 H         1.967034        -0.731381         2.120059
 H         3.536653        -2.592034         1.164256
 H         3.411574        -2.666184        -1.556373
 H         4.117945         0.054787        -0.430456
 H         4.130259        -0.177525        -2.272731
 H         0.683067        -0.043870        -2.129490
