19
Iteration:  2840charge 0 multiplicity 1
 C         0.007463        -0.079755        -0.038979
 C         1.539386        -0.023567         0.007513
 O         1.890947         1.368220         0.352519
 C         2.122522        -0.929977         1.027058
 C         3.010431        -1.916862         0.592845
 C         3.085633        -1.823579        -0.948967
 C         3.762459        -0.508098        -1.540684
 C         2.248945        -0.571183        -1.357960
 O         1.321079        -0.468294        -2.445988
 H        -0.394023         0.145305        -1.060911
 H        -0.184365        -1.172293         0.058245
 H        -0.594188         0.493210         0.771537
 H         2.771228         1.238373         0.711890
 H         1.846583        -0.746168         2.043090
 H         3.788587        -2.502276         1.127391
 H         3.157504        -2.730581        -1.667232
 H         4.318800         0.164943        -0.827156
 H         4.181173        -0.658664        -2.470861
 H         1.499629         0.414768        -2.861214
