19
Iteration:  1550charge 0 multiplicity 1
 C         0.078940        -0.098472         0.014743
 C         1.618969        -0.035997         0.039505
 O         1.971094         1.345253         0.088133
 C         2.180756        -1.002738         1.073004
 C         2.811127        -2.054113         0.506410
 C         2.978923        -1.739131        -0.969581
 C         3.750862        -0.446233        -1.302691
 C         2.197360        -0.561087        -1.213505
 O         1.419986        -0.360647        -2.469746
 H        -0.281086         0.252223        -1.027287
 H        -0.340472        -1.225874         0.176601
 H        -0.426679         0.408852         0.898416
 H         1.365973         1.908149        -0.287776
 H         1.956573        -1.103546         2.201926
 H         3.408940        -2.838942         1.022243
 H         3.009264        -2.690249        -1.531865
 H         4.509838        -0.066276        -0.486482
 H         4.144819        -0.377192        -2.360369
 H         2.106983         0.045168        -3.057364
