19
Iteration:  2184
 C         0.080124        -0.212291         0.033210
 C         1.607278         0.035593         0.035367
 O         1.750838         1.383167         0.466667
 C         2.289584        -0.727657         1.026547
 C         2.898884        -1.803313         0.574608
 C         2.842324        -1.842061        -0.994902
 C         3.756926        -0.762299        -1.478706
 C         2.282765        -0.465856        -1.412310
 O         1.454500        -0.466893        -2.609079
 H        -0.320116         0.345228        -0.818938
 H        -0.292769        -1.330881        -0.141559
 H        -0.338159         0.204657         1.005328
 H         2.653649         1.417595         0.871044
 H         2.205341        -0.771299         2.103953
 H         3.632869        -2.372913         1.189733
 H         2.532193        -2.689779        -1.637928
 H         4.368638        -0.369019        -0.698812
 H         4.194903        -0.867355        -2.508987
 H         2.086411        -0.074470        -3.274381
