19
Iteration:  1617charge 0 multiplicity 1
 C         0.037743        -0.166609        -0.155789
 C         1.545577         0.027955         0.022629
 O         2.019986         1.293111         0.459716
 C         2.144982        -0.908813         1.051688
 C         2.978539        -1.836795         0.564850
 C         2.858025        -1.796774        -0.856751
 C         3.716452        -0.544941        -1.511065
 C         2.199833        -0.561129        -1.293082
 O         1.483470        -0.402177        -2.531654
 H        -0.344494         0.802046        -0.675533
 H        -0.354540        -1.044508        -0.711249
 H        -0.521919        -0.287263         0.837371
 H         1.419133         1.881843        -0.176838
 H         2.028954        -0.527741         2.100158
 H         3.413891        -2.697114         1.105184
 H         2.888123        -2.727869        -1.403227
 H         4.586163        -0.232188        -0.839047
 H         3.994508        -0.586253        -2.559373
 H         2.178592        -0.577077        -3.167422
