19
Iteration:   170
 C        -0.041088        -0.126311        -0.023350
 C         1.557146         0.031634        -0.068136
 O         1.932877         1.406216         0.360706
 C         2.203099        -0.824434         0.994223
 C         2.886872        -1.948752         0.539921
 C         3.008475        -1.815910        -0.957661
 C         3.807079        -0.629648        -1.283958
 C         2.290278        -0.520355        -1.302709
 O         1.472497        -0.558156        -2.578514
 H        -0.379730        -0.642819         0.844428
 H        -0.557217         0.831679        -0.037742
 H        -0.562756        -0.506778        -0.979385
 H         1.177571         1.951151         0.249319
 H         2.041964        -0.507937         2.036070
 H         3.202464        -2.816896         1.117120
 H         2.986027        -2.626945        -1.644734
 H         4.450357        -0.179938        -0.466039
 H         4.224408        -0.613364        -2.280075
 H         1.513042         0.352409        -2.917345
