19
Iteration:  3776charge 0 multiplicity 1
 C        -0.046994        -0.089887         0.023337
 C         1.508738         0.029753         0.053974
 O         2.118820         1.322790         0.199574
 C         2.148148        -1.056194         1.043673
 C         2.942733        -1.971525         0.527238
 C         3.049396        -1.632108        -0.925777
 C         3.594605        -0.346131        -1.386440
 C         2.192503        -0.459737        -1.286877
 O         1.491588        -0.718597        -2.570009
 H        -0.444525         0.892431        -0.405454
 H        -0.236465        -0.946240        -0.733643
 H        -0.389234        -0.377369         1.016973
 H         1.671091         1.771879         0.870927
 H         2.019890        -0.757593         2.117625
 H         3.547527        -2.773868         0.979028
 H         3.126206        -2.424905        -1.679159
 H         4.109993         0.238902        -0.601869
 H         4.233449        -0.302252        -2.216791
 H         1.049329         0.121034        -2.800235
