19
Iteration:  1527charge 0 multiplicity 1
 C        -0.014222        -0.115813         0.081137
 C         1.590260        -0.055971        -0.031333
 O         2.042790         1.295580         0.188634
 C         2.158266        -0.904140         1.079978
 C         2.862841        -1.950972         0.521901
 C         3.050235        -1.868415        -0.934520
 C         3.593365        -0.527756        -1.312511
 C         2.208504        -0.584574        -1.320160
 O         1.515277        -0.319349        -2.547920
 H        -0.658906         0.482933        -0.623149
 H        -0.357259        -1.262464         0.079304
 H        -0.186145         0.149170         1.147152
 H         1.624736         1.884608        -0.549364
 H         1.874506        -0.793161         2.113070
 H         3.486862        -2.667551         1.022821
 H         3.107791        -2.745645        -1.627726
 H         3.857951         0.069309        -0.433953
 H         4.280915        -0.374824        -2.228954
 H         1.771255         0.535482        -2.950165
