19
Iteration:  2473charge 0 multiplicity 1
 C         0.088226        -0.250208         0.028218
 C         1.598946        -0.031440         0.016429
 O         1.856996         1.395538         0.167219
 C         2.288652        -0.856184         1.094264
 C         2.803381        -1.925613         0.519389
 C         2.932937        -1.804798        -0.920491
 C         3.843732        -0.673600        -1.427204
 C         2.268269        -0.515203        -1.293569
 O         1.317024        -0.325881        -2.470253
 H        -0.335193         0.016750        -0.983786
 H        -0.070885        -1.304477         0.370596
 H        -0.488801         0.358788         0.836790
 H         2.813608         1.492694        -0.137634
 H         1.849382        -0.685966         2.143573
 H         3.474059        -2.609273         1.124507
 H         2.847980        -2.585868        -1.619480
 H         4.481168        -0.129000        -0.656525
 H         4.254160        -0.702263        -2.434421
 H         1.605062         0.532177        -2.783668
