19
Iteration:  1804
 C         0.031350        -0.120989         0.033999
 C         1.590890         0.015062        -0.123034
 O         1.992894         1.371036         0.279109
 C         2.226651        -0.848846         0.994077
 C         2.857498        -2.013763         0.504651
 C         2.985992        -1.821765        -0.959244
 C         3.749931        -0.465845        -1.271437
 C         2.173750        -0.623760        -1.298904
 O         1.345125        -0.432816        -2.453395
 H        -0.587950         0.765261        -0.172851
 H        -0.202762        -1.002577        -0.527539
 H        -0.129925        -0.440311         1.118969
 H         2.183242         1.933374        -0.572304
 H         1.978334        -0.860236         2.088400
 H         3.235171        -2.881636         1.124384
 H         3.296405        -2.638851        -1.620495
 H         4.318720         0.109458        -0.508402
 H         4.203507        -0.330690        -2.328359
 H         2.012094        -0.294674        -3.153860
