19
Iteration:  2944charge 0 multiplicity 1
 C         0.113748        -0.224740        -0.108778
 C         1.658363         0.012036         0.030224
 O         1.814854         1.355371         0.328766
 C         2.167123        -0.938305         1.132314
 C         2.861637        -1.921935         0.540489
 C         2.962864        -1.706102        -0.966324
 C         3.718889        -0.540831        -1.511361
 C         2.262018        -0.361671        -1.289327
 O         1.414926        -0.592226        -2.407939
 H        -0.134146         0.611559        -0.822285
 H        -0.003253        -1.169294        -0.563811
 H        -0.409843        -0.196961         0.816308
 H         2.655837         1.710513        -0.160105
 H         2.116528        -0.835963         2.211526
 H         3.517821        -2.526993         1.184979
 H         3.036005        -2.490476        -1.743767
 H         4.512466         0.111318        -0.980867
 H         4.031949        -0.683172        -2.521747
 H         1.169408         0.243962        -2.852062
