19
Iteration:  1218charge 0 multiplicity 1
 C         0.040930        -0.106584        -0.035286
 C         1.585029        -0.069163        -0.075385
 O         1.985219         1.339580         0.194646
 C         2.108364        -0.941781         0.996936
 C         2.730708        -2.023967         0.488794
 C         2.985081        -1.798918        -0.895637
 C         3.848698        -0.257488        -1.182883
 C         2.296959        -0.551515        -1.308041
 O         1.452326        -0.537691        -2.500978
 H        -0.509522         0.345062        -0.891057
 H        -0.249616        -1.136604         0.035595
 H        -0.365981         0.242133         1.035680
 H         2.580792         1.583520        -0.625883
 H         2.003254        -0.836169         2.029233
 H         3.037135        -2.849949         1.033124
 H         3.185271        -2.588521        -1.610727
 H         4.205489         0.133170        -0.251987
 H         4.207599        -0.140361        -2.168919
 H         0.874402         0.215941        -2.332702
