19
Iteration:  1846
 C         0.033993        -0.062409         0.159079
 C         1.520034         0.014426         0.066041
 O         1.824444         1.383066         0.173105
 C         2.225883        -0.960596         1.127835
 C         2.919595        -1.977828         0.501670
 C         2.937477        -1.729153        -0.944253
 C         3.719821        -0.539554        -1.440490
 C         2.190920        -0.561685        -1.306791
 O         1.551586        -0.466478        -2.586866
 H        -0.437941         0.928570         0.073274
 H        -0.506477        -0.727868        -0.413255
 H        -0.195826        -0.472048         1.192386
 H         2.822590         1.424587         0.154453
 H         1.690397        -0.899589         2.077382
 H         3.514436        -2.788684         0.953532
 H         2.843158        -2.639728        -1.522611
 H         4.521162        -0.145261        -0.845169
 H         4.135039        -0.518061        -2.492010
 H         2.131252        -0.211422        -3.300827
