19
Iteration:  3360
 C         0.066001        -0.109102         0.183913
 C         1.517570        -0.057783         0.028152
 O         1.904943         1.299358         0.133872
 C         2.168853        -0.962257         1.040232
 C         2.971566        -1.923731         0.450611
 C         3.107012        -1.792760        -1.018617
 C         3.713059        -0.390067        -1.318833
 C         2.198971        -0.552361        -1.351460
 O         1.437662        -0.489920        -2.504129
 H        -0.393405         0.501672        -0.683769
 H        -0.554963        -0.930495         0.099296
 H        -0.206830         0.211580         1.207803
 H         1.260226         1.860347         0.702211
 H         1.905440        -0.906474         2.059129
 H         3.462984        -2.757593         1.037616
 H         3.226528        -2.688722        -1.748075
 H         4.038397         0.119317        -0.423854
 H         4.186004        -0.414839        -2.342485
 H         1.796663         0.314096        -2.944664
