19
Iteration:   707
 C        -0.125956        -0.055616        -0.145794
 C         1.527484        -0.091169        -0.006884
 O         1.862976         1.366463         0.318439
 C         2.157954        -0.963621         1.137551
 C         2.960756        -1.877653         0.627041
 C         3.033187        -1.846445        -0.872277
 C         3.725732        -0.595616        -1.407485
 C         2.165082        -0.581588        -1.295957
 O         1.574652        -0.407647        -2.568249
 H        -0.522517         0.127021         0.873161
 H        -0.392317         0.822555        -0.736996
 H        -0.672886        -0.833760        -0.670663
 H         2.694692         1.635591        -0.044111
 H         2.140725        -0.443202         2.142404
 H         3.847150        -2.176114         1.260338
 H         2.879809        -2.636973        -1.650123
 H         4.403845         0.063095        -0.815957
 H         4.055328        -0.615283        -2.435947
 H         2.339343        -0.340173        -3.135308
