19
Iteration:    73
 C        -0.031491        -0.053147        -0.135902
 C         1.584863        -0.000155         0.061147
 O         2.038071         1.328159         0.204987
 C         2.182473        -1.045300         1.127279
 C         2.962528        -1.992712         0.539100
 C         3.001844        -1.738658        -0.927082
 C         3.711923        -0.414459        -1.343984
 C         2.251309        -0.568061        -1.311902
 O         1.382205        -0.441903        -2.437133
 H        -0.591437         0.616383         0.506864
 H        -0.360144         0.104976        -1.172600
 H        -0.418457        -1.148158         0.029546
 H         1.295729         1.881645         0.026015
 H         1.958092        -1.054479         2.241262
 H         3.305332        -2.877144         1.083019
 H         3.072420        -2.541129        -1.655615
 H         4.163260         0.236789        -0.624411
 H         4.223014        -0.660036        -2.330697
 H         1.788678        -0.178235        -3.268813
