19
Iteration:  2780charge 0 multiplicity 1
 C         0.053544        -0.146146         0.124415
 C         1.596049         0.019567        -0.055509
 O         1.739495         1.475787         0.321393
 C         2.267536        -0.893865         1.025083
 C         2.932220        -1.970069         0.486279
 C         2.989350        -1.827248        -0.972802
 C         3.751469        -0.629040        -1.398885
 C         2.209010        -0.561723        -1.307224
 O         1.484674        -0.473146        -2.550048
 H        -0.428949         0.827471        -0.078411
 H        -0.359253        -0.905158        -0.613167
 H        -0.253847        -0.513890         1.076215
 H         2.626736         1.758928         0.255290
 H         2.128947        -0.508726         2.059698
 H         3.283414        -2.925849         0.905975
 H         2.876120        -2.618765        -1.669028
 H         4.392406        -0.053439        -0.718250
 H         4.147462        -0.677413        -2.445487
 H         1.518955         0.485996        -2.715098
