19
Iteration:  1820charge 0 multiplicity 1
 C         0.026573        -0.152987         0.172331
 C         1.552346         0.016595         0.035244
 O         1.947631         1.426029         0.254793
 C         2.197964        -0.898145         1.009927
 C         2.813714        -2.001710         0.455307
 C         3.014970        -1.800438        -0.991197
 C         3.652632        -0.503400        -1.323997
 C         2.224751        -0.542355        -1.366983
 O         1.495568        -0.495148        -2.524617
 H        -0.386844         0.856289         0.007763
 H        -0.552204        -0.820202        -0.525784
 H        -0.269495        -0.533290         1.130411
 H         2.532298         1.666061        -0.529033
 H         2.135751        -0.538433         2.032163
 H         3.395294        -2.656500         1.107916
 H         2.910806        -2.665864        -1.651231
 H         4.099463         0.033745        -0.475336
 H         4.363575        -0.402482        -2.113964
 H         1.994828        -0.433518        -3.335483
