19
Iteration:  4420charge 0 multiplicity 1
 C         0.153882        -0.331032         0.104475
 C         1.607568        -0.041242         0.103143
 O         1.800449         1.423911         0.104508
 C         2.327738        -1.000528         1.131624
 C         2.834041        -2.022390         0.474407
 C         2.964699        -1.819544        -1.042946
 C         3.666019        -0.447547        -1.427576
 C         2.194931        -0.537449        -1.243235
 O         1.429849        -0.247125        -2.497753
 H        -0.074778        -1.407097         0.166855
 H        -0.405066         0.237369         0.900635
 H        -0.314548        -0.097630        -0.849913
 H         2.589926         1.736032         0.675819
 H         2.115272        -0.998217         2.168107
 H         3.210268        -2.903636         0.952461
 H         3.076365        -2.526492        -1.856656
 H         4.172055         0.190089        -0.645000
 H         4.082160        -0.313946        -2.439122
 H         1.982430         0.466865        -2.768596
