19
Iteration:  3966
 C         0.094507        -0.144996        -0.115995
 C         1.568013        -0.037568        -0.033143
 O         2.028071         1.295926         0.208182
 C         2.209366        -0.990576         1.019302
 C         2.993760        -1.931177         0.576202
 C         3.052460        -1.809167        -0.889205
 C         3.592233        -0.304742        -1.420371
 C         2.164202        -0.570022        -1.278086
 O         1.330775        -0.496524        -2.410226
 H        -0.407157         0.832009        -0.147165
 H        -0.243132        -0.652014        -1.060524
 H        -0.088762        -0.767617         0.826349
 H         1.718724         1.579370         1.132427
 H         1.914813        -0.509563         1.950325
 H         3.530723        -2.748352         1.149485
 H         3.061962        -2.586530        -1.626850
 H         4.229115         0.337452        -0.740890
 H         4.038258        -0.326420        -2.420285
 H         1.524850         0.312081        -2.919288
