19
Iteration:  4460charge 0 multiplicity 1
 C         0.051902        -0.294495         0.068886
 C         1.551692        -0.080079         0.008765
 O         1.760776         1.392158         0.296127
 C         2.261765        -0.969978         1.050179
 C         2.940744        -1.901061         0.515360
 C         2.928729        -1.840988        -1.056300
 C         3.806095        -0.629582        -1.414470
 C         2.261438        -0.554961        -1.378156
 O         1.486717        -0.183102        -2.453221
 H        -0.088380        -1.343607         0.272036
 H        -0.415541         0.265484         1.058526
 H        -0.402922         0.087044        -0.804403
 H         2.344737         1.612630        -0.379650
 H         2.258115        -0.687020         2.127971
 H         3.755552        -2.525375         0.991493
 H         2.733968        -2.749737        -1.758197
 H         4.342288        -0.050164        -0.690991
 H         4.185819        -0.405403        -2.385552
 H         0.810155         0.518203        -2.233285
