19
Iteration:  2501
 C         0.080346        -0.218887        -0.186010
 C         1.642675        -0.019069        -0.013132
 O         1.802156         1.447553         0.225792
 C         2.253627        -0.879641         1.133256
 C         2.977851        -1.913328         0.565326
 C         2.948885        -1.897700        -0.870421
 C         3.630404        -0.679103        -1.603071
 C         2.238651        -0.557614        -1.220554
 O         1.396025        -0.272825        -2.341899
 H        -0.378029         0.089967        -1.171595
 H        -0.048132        -1.224449         0.091236
 H        -0.314290         0.291427         0.650274
 H         2.730164         1.593871         0.401416
 H         2.003678        -0.674633         2.171951
 H         3.547751        -2.615024         1.200414
 H         2.768547        -2.801331        -1.537887
 H         4.387483        -0.323113        -0.893212
 H         3.977024        -0.583882        -2.598169
 H         1.988943         0.253377        -2.899703
