19
Iteration:  3857charge 0 multiplicity 1
 C         0.186598        -0.389826        -0.093761
 C         1.603552         0.031846         0.014591
 O         1.890567         1.373587         0.181902
 C         2.230565        -0.857516         1.070005
 C         2.907628        -1.846681         0.535200
 C         2.840212        -1.837528        -1.032660
 C         3.711129        -0.603492        -1.444902
 C         2.264168        -0.524373        -1.210024
 O         1.448325        -0.294570        -2.330816
 H        -0.356409        -0.343183        -1.002406
 H         0.132717        -1.482856         0.281001
 H        -0.522374         0.063100         0.654332
 H         1.036622         1.877536         0.188619
 H         2.374740        -0.697493         2.078006
 H         3.365982        -2.681161         1.138208
 H         2.660080        -2.740070        -1.662111
 H         4.366183        -0.106893        -0.786372
 H         3.894844        -0.536488        -2.579395
 H         1.817813         0.531275        -2.768299
