19
Iteration:  3270
 C         0.112444        -0.359408        -0.169339
 C         1.648110         0.048320        -0.013008
 O         1.841712         1.486172         0.212914
 C         2.299467        -0.829237         1.144418
 C         2.903763        -1.942865         0.551349
 C         2.955127        -1.853384        -0.966379
 C         3.761879        -0.591554        -1.474364
 C         2.231426        -0.533983        -1.292311
 O         1.337264        -0.365943        -2.331530
 H        -0.227210         0.115242        -1.145679
 H         0.108731        -1.380914        -0.267759
 H        -0.398583        -0.036078         0.704711
 H         1.277564         1.621505         1.012018
 H         2.114835        -0.660631         2.205363
 H         3.412462        -2.745063         1.049469
 H         2.897742        -2.663805        -1.619725
 H         4.510230        -0.235432        -0.799940
 H         3.843782        -0.701102        -2.535529
 H         1.762833         0.327462        -2.850115
