19
Iteration:  2799
 C         0.063854        -0.195887        -0.072125
 C         1.597980         0.108844         0.115444
 O         1.798766         1.523281         0.399992
 C         2.316747        -0.914864         1.099721
 C         2.834465        -2.015088         0.466949
 C         2.927541        -1.837115        -0.998957
 C         3.699097        -0.551810        -1.557950
 C         2.258304        -0.434274        -1.297051
 O         1.480216        -0.599127        -2.492484
 H        -0.373835         0.572705        -0.578043
 H         0.056937        -1.185973        -0.605822
 H        -0.306378        -0.405249         0.932482
 H         2.738890         1.749518         0.335268
 H         2.190232        -0.854164         2.184058
 H         3.299117        -2.613361         1.268466
 H         2.883506        -2.760973        -1.666647
 H         4.399473        -0.111941        -0.765469
 H         4.082336        -0.515516        -2.542701
 H         1.297433         0.234136        -2.933502
