19
Iteration:  2321
 C        -0.025145         0.057271         0.077203
 C         1.520026         0.064962         0.023443
 O         1.835245         1.413766         0.437398
 C         2.162838        -0.986112         1.030629
 C         3.016915        -1.907250         0.437349
 C         3.084375        -1.783552        -1.002005
 C         3.742649        -0.578792        -1.500647
 C         2.190127        -0.587982        -1.326155
 O         1.468656        -0.647038        -2.563693
 H        -0.750222         0.481868        -0.639048
 H        -0.388516        -0.864226         0.430675
 H        -0.100646         0.762467         0.965234
 H         2.801611         1.336017         0.793115
 H         1.678846        -0.942911         2.015318
 H         3.704948        -2.634097         0.906268
 H         3.026749        -2.567239        -1.829656
 H         4.361465        -0.014239        -0.755693
 H         4.107887        -0.593844        -2.562896
 H         1.503955         0.229356        -2.965452
