19
Iteration:   948
 C        -0.047077         0.005287        -0.124216
 C         1.499365        -0.038598         0.003552
 O         1.930086         1.302320         0.262686
 C         2.079943        -0.972065         1.024060
 C         2.950301        -1.890506         0.564803
 C         3.023207        -1.738045        -0.884055
 C         3.725839        -0.547794        -1.403830
 C         2.197265        -0.605583        -1.247513
 O         1.563631        -0.477224        -2.478460
 H        -0.497584         0.942955        -0.026100
 H        -0.370074        -0.490033        -0.980017
 H        -0.557763        -0.421962         0.753572
 H         2.845768         1.293117        -0.120675
 H         1.809480        -0.818354         2.062310
 H         3.520866        -2.541234         1.279437
 H         3.035193        -2.729186        -1.362237
 H         4.275409         0.070320        -0.752037
 H         3.925312        -0.518716        -2.493084
 H         2.079686         0.264387        -2.882576
