19
Iteration:   976
 C         0.081824        -0.131344        -0.220086
 C         1.605189        -0.035037         0.039116
 O         1.871919         1.388768         0.355076
 C         2.111564        -0.959924         1.090138
 C         2.810943        -1.938936         0.615693
 C         3.024169        -1.793528        -0.928357
 C         3.823391        -0.581002        -1.429351
 C         2.311374        -0.536713        -1.353528
 O         1.365226        -0.357246        -2.400909
 H        -0.348287         0.701085        -0.885670
 H        -0.258134        -1.119429        -0.748217
 H        -0.616941         0.032157         0.634411
 H         2.607026         1.641721        -0.315248
 H         1.873062        -0.689220         2.102526
 H         3.258550        -2.673884         1.242798
 H         3.137554        -2.751338        -1.432493
 H         4.305151         0.071801        -0.690105
 H         4.269387        -0.641730        -2.473507
 H         1.864739        -0.542258        -3.233312
