19
Iteration:  3908charge 0 multiplicity 1
 C         0.166483        -0.250488         0.239330
 C         1.613713        -0.056190        -0.023169
 O         1.735326         1.404210         0.194684
 C         2.282718        -0.861777         1.023700
 C         2.861966        -1.981648         0.488108
 C         2.920987        -1.820031        -1.011784
 C         3.691730        -0.555140        -1.412622
 C         2.205111        -0.513997        -1.304978
 O         1.631179        -0.344259        -2.554513
 H        -0.477676         0.106498        -0.528290
 H        -0.256005        -1.322112         0.462338
 H        -0.114762         0.320881         1.095846
 H         0.861697         1.709377         0.284102
 H         2.008817        -0.687382         2.038640
 H         3.469224        -2.749196         0.951525
 H         2.940699        -2.792984        -1.520590
 H         4.334850        -0.272296        -0.676954
 H         3.958834        -0.598364        -2.422934
 H         1.619851         0.611421        -2.702366
