19
Iteration:  1042
 C        -0.032514        -0.122132         0.173269
 C         1.536806        -0.076040         0.001026
 O         1.770729         1.371112         0.150579
 C         2.143906        -0.974721         1.043329
 C         2.910350        -1.968080         0.531413
 C         2.939615        -1.885750        -0.966260
 C         3.677285        -0.548177        -1.308273
 C         2.236314        -0.475642        -1.308733
 O         1.794042        -0.282640        -2.627044
 H        -0.574022        -0.014637        -0.780498
 H        -0.281983        -1.098275         0.688894
 H        -0.247115         0.837702         0.658019
 H         2.694819         1.525965         0.084961
 H         1.952019        -0.821474         2.091931
 H         3.298712        -2.799567         1.138732
 H         3.185125        -2.723864        -1.612902
 H         4.186895        -0.156312        -0.470014
 H         4.085193        -0.294026        -2.325849
 H         0.842365        -0.448107        -2.632750
