19
Iteration:  3946charge 0 multiplicity 1
 C        -0.026223        -0.225531         0.091641
 C         1.560227        -0.047173         0.049088
 O         1.975346         1.340206         0.137630
 C         2.250888        -0.963176         1.124336
 C         2.917520        -1.862785         0.467810
 C         3.018144        -1.754376        -0.977267
 C         3.747358        -0.491877        -1.395246
 C         2.172116        -0.544193        -1.340066
 O         1.400503        -0.425687        -2.474769
 H        -0.392132         0.806259        -0.180307
 H        -0.270111        -0.847249        -0.704978
 H        -0.349935        -0.645690         1.091320
 H         1.216625         1.784495         0.660800
 H         2.027189        -0.909675         2.208567
 H         3.520017        -2.568834         1.043821
 H         3.215354        -2.566528        -1.631674
 H         4.424955        -0.000670        -0.545879
 H         4.259717        -0.355681        -2.377190
 H         1.769066         0.148576        -3.202030
