19
Iteration:  2214
 C         0.075460        -0.204462        -0.074408
 C         1.618899         0.059441         0.017161
 O         1.754754         1.494508         0.305732
 C         2.265625        -0.852574         1.117104
 C         2.892816        -1.900810         0.569624
 C         2.912032        -1.845563        -0.908573
 C         3.696469        -0.715271        -1.620359
 C         2.275184        -0.556462        -1.294761
 O         1.531905        -0.411396        -2.455919
 H        -0.490444         0.398890        -0.756940
 H        -0.198836        -1.230209        -0.320119
 H        -0.339204        -0.174103         0.978065
 H         2.557380         1.600881         0.931192
 H         2.088174        -0.967584         2.142045
 H         3.588079        -2.545527         1.085138
 H         2.718992        -2.779837        -1.561953
 H         4.457150        -0.176814        -1.097129
 H         3.695154        -0.980036        -2.750450
 H         1.610675         0.531656        -2.698854
