19
Iteration:   582charge 0 multiplicity 1
 C        -0.117909         0.010434        -0.102314
 C         1.468667        -0.097566         0.038850
 O         2.037688         1.199319         0.206732
 C         2.000809        -1.034343         1.064568
 C         3.013837        -1.786812         0.634132
 C         3.052834        -1.798340        -0.942463
 C         3.753298        -0.471569        -1.428157
 C         2.296989        -0.563041        -1.278398
 O         1.621130        -0.418911        -2.506829
 H        -0.328766         0.845868         0.551717
 H        -0.631380         0.155060        -1.035717
 H        -0.512832        -0.873000         0.519751
 H         1.453309         1.896835         0.105205
 H         1.634704        -1.009923         2.126910
 H         3.379840        -2.572431         1.291659
 H         3.063806        -2.542367        -1.702533
 H         4.350664         0.113081        -0.615380
 H         3.878109        -0.203499        -2.445063
 H         0.685270        -0.597898        -2.616004
