19
Iteration:  4463charge 0 multiplicity 1
 C         0.069127        -0.273990         0.080890
 C         1.556903        -0.073219         0.018081
 O         1.745647         1.378478         0.314913
 C         2.250021        -0.955821         1.063597
 C         2.961973        -1.915571         0.490802
 C         2.956550        -1.844999        -1.051028
 C         3.783893        -0.653190        -1.416841
 C         2.234001        -0.537823        -1.361966
 O         1.495803        -0.183727        -2.477676
 H        -0.172208        -1.386563         0.168840
 H        -0.400945         0.273723         1.046623
 H        -0.430521         0.124581        -0.829420
 H         2.377925         1.770051        -0.425827
 H         2.242630        -0.711210         2.052439
 H         3.692845        -2.500345         0.923518
 H         2.822921        -2.743743        -1.608808
 H         4.384819        -0.002327        -0.732555
 H         4.225840        -0.501523        -2.395399
 H         0.756002         0.429501        -2.260274
