19
Iteration:  1344
 C         0.019018        -0.212461        -0.057837
 C         1.552327         0.014052         0.012316
 O         1.993560         1.470582         0.179109
 C         2.129846        -0.925809         1.043146
 C         2.800890        -1.980725         0.511607
 C         3.041628        -1.813192        -0.943129
 C         3.750677        -0.545484        -1.408480
 C         2.252788        -0.415020        -1.269700
 O         1.527185        -0.523423        -2.430738
 H        -0.581452         0.480111        -0.682443
 H        -0.155086        -1.351188        -0.138557
 H        -0.306823         0.014368         0.945734
 H         1.623673         1.846589         1.016401
 H         1.758956        -1.003781         2.035094
 H         3.070688        -2.934164         0.934385
 H         2.918194        -2.634769        -1.651903
 H         4.295126         0.011443        -0.534145
 H         4.267937        -0.514542        -2.413850
 H         1.336036         0.288053        -2.928231
