19
Iteration:   829charge 0 multiplicity 1
 C        -0.004701        -0.068059        -0.098834
 C         1.461528        -0.056434         0.033470
 O         1.901630         1.341773         0.326630
 C         2.159781        -0.834181         1.042969
 C         2.931618        -1.775237         0.651540
 C         2.984800        -1.913791        -0.888289
 C         3.731225        -0.615139        -1.362287
 C         2.145751        -0.690857        -1.340267
 O         1.619517        -0.303851        -2.584282
 H        -0.694645        -0.016012         0.743458
 H        -0.154552         0.786997        -0.721067
 H        -0.407611        -0.990474        -0.662642
 H         2.599466         1.557013        -0.277942
 H         2.036998        -0.515937         2.062692
 H         3.638769        -2.285329         1.304092
 H         2.739615        -2.852886        -1.394060
 H         4.417575        -0.325733        -0.625981
 H         4.216103        -0.623212        -2.399653
 H         1.463683        -1.078609        -3.142735
