19
Iteration:  2956
 C         0.069621        -0.221964        -0.161806
 C         1.566004        -0.014772         0.107444
 O         1.806933         1.382424         0.340196
 C         2.240500        -0.897363         1.100475
 C         3.015109        -1.836841         0.535352
 C         2.956883        -1.753592        -0.925170
 C         3.752506        -0.567726        -1.552604
 C         2.242501        -0.509078        -1.260199
 O         1.407338        -0.502774        -2.450269
 H        -0.356305         0.506567        -0.924542
 H        -0.134980        -1.157580        -0.560255
 H        -0.564090        -0.062692         0.719942
 H         2.738088         1.529123         0.238420
 H         1.924792        -0.744030         2.108431
 H         3.520077        -2.713190         0.977965
 H         2.592894        -2.705294        -1.439624
 H         4.484528        -0.118764        -0.787020
 H         3.936974        -0.576294        -2.588061
 H         1.423470         0.394709        -2.880302
