19
Iteration:  1354charge 0 multiplicity 1
 C         0.086935        -0.144100         0.093119
 C         1.558101         0.032057        -0.019193
 O         1.965515         1.489139         0.170284
 C         2.057961        -1.015134         1.002919
 C         2.834717        -1.982430         0.474048
 C         3.023571        -1.765266        -0.949322
 C         3.775457        -0.521474        -1.321214
 C         2.241768        -0.547267        -1.299012
 O         1.518784        -0.544560        -2.516880
 H        -0.441393         0.480533        -0.679869
 H        -0.248527        -1.184070        -0.264946
 H        -0.269077         0.079187         1.079362
 H         1.412881         1.842098         0.850630
 H         1.924146        -0.765566         2.032894
 H         3.189356        -2.880554         0.993763
 H         2.872655        -2.590145        -1.642048
 H         4.195478         0.060317        -0.408273
 H         4.435529        -0.419001        -2.195880
 H         1.361306         0.394528        -2.788927
