19
Iteration:  3529charge 0 multiplicity 1
 C         0.149909        -0.189579        -0.135622
 C         1.607955        -0.011272        -0.017778
 O         1.830653         1.375816         0.361154
 C         2.214193        -0.904502         1.058739
 C         2.883585        -1.903773         0.537751
 C         3.040045        -1.791222        -0.969849
 C         3.768133        -0.546313        -1.449161
 C         2.225722        -0.551146        -1.252651
 O         1.372620        -0.473394        -2.425066
 H        -0.357437         0.326723        -0.907433
 H        -0.019570        -1.375083        -0.325128
 H        -0.227938         0.192739         0.837608
 H         1.290623         2.048533        -0.189303
 H         2.367462        -0.619339         2.071923
 H         3.569278        -2.567983         1.169420
 H         2.909221        -2.669855        -1.679960
 H         4.326548        -0.027948        -0.721954
 H         3.995816        -0.640048        -2.537221
 H         1.332894         0.472928        -2.726999
