19
Iteration:  2588
 C         0.005030        -0.050134         0.048560
 C         1.590641        -0.047465         0.084640
 O         1.975742         1.390252         0.048937
 C         2.175394        -1.030327         1.134449
 C         2.845021        -2.078477         0.566375
 C         3.024386        -1.674245        -0.941882
 C         3.729540        -0.328645        -1.433060
 C         2.237755        -0.546831        -1.251629
 O         1.421920        -0.575865        -2.491740
 H        -0.122879         0.961880        -0.425050
 H        -0.387591        -0.783177        -0.588552
 H        -0.617860        -0.057538         0.897196
 H         2.961121         1.430243        -0.263218
 H         1.930505        -1.219395         2.226602
 H         3.238666        -3.019747         1.086213
 H         3.164509        -2.458622        -1.697954
 H         4.324968         0.194574        -0.623660
 H         4.129946        -0.389824        -2.381805
 H         0.837547         0.191348        -2.420248
