19
Iteration:  1438charge 0 multiplicity 1
 C         0.074032        -0.076840        -0.170049
 C         1.605829        -0.008047        -0.030328
 O         2.007427         1.288514         0.425244
 C         2.153853        -0.908709         1.054213
 C         2.859686        -1.986861         0.593594
 C         2.999639        -1.772261        -0.944841
 C         3.827377        -0.475188        -1.460377
 C         2.284228        -0.532280        -1.315163
 O         1.286948        -0.493287        -2.471218
 H        -0.385115         0.427386        -1.045106
 H        -0.099871        -1.188990        -0.320563
 H        -0.370722         0.333141         0.773001
 H         1.211644         1.931359         0.375624
 H         1.654242        -0.612728         1.975350
 H         3.317267        -2.788288         1.219813
 H         3.078810        -2.655828        -1.565451
 H         4.467989         0.130525        -0.774198
 H         4.113917        -0.597916        -2.473003
 H         1.764294         0.223625        -2.930408
