19
Iteration:  1517
 C        -0.013763        -0.126946         0.120323
 C         1.509432        -0.018715        -0.054203
 O         2.025057         1.279310         0.268996
 C         2.200784        -0.870984         1.024665
 C         2.833674        -1.911215         0.550033
 C         3.043005        -1.847284        -0.974563
 C         3.728328        -0.530806        -1.321824
 C         2.125965        -0.633357        -1.364173
 O         1.515921        -0.354919        -2.580805
 H        -0.608890         0.606735        -0.527601
 H        -0.428137        -1.216027        -0.169280
 H        -0.316169         0.069092         1.184460
 H         1.850074         1.960332        -0.427637
 H         1.939415        -0.874376         2.083949
 H         3.399430        -2.543097         1.220270
 H         3.133085        -2.876809        -1.370316
 H         4.350747        -0.080200        -0.516097
 H         4.148875        -0.320548        -2.385302
 H         1.864575         0.561321        -2.654981
