19
Iteration:   659
 C         0.023358        -0.153710        -0.167205
 C         1.528316         0.095145         0.017126
 O         1.918599         1.466013         0.224181
 C         2.023501        -0.958327         1.061091
 C         2.747409        -1.979723         0.522087
 C         3.056679        -1.809886        -0.909272
 C         3.830494        -0.467756        -1.399753
 C         2.354075        -0.453006        -1.337880
 O         1.458902        -0.527223        -2.366827
 H        -0.207382        -0.580954         0.778778
 H        -0.671378         0.643937        -0.410372
 H        -0.098252        -0.894785        -0.965003
 H         2.624267         1.345164         0.894944
 H         2.059056        -0.650257         2.064455
 H         3.265210        -2.713881         1.097249
 H         3.153076        -2.683645        -1.523998
 H         4.540862         0.009343        -0.698542
 H         4.237850        -0.495630        -2.444587
 H         1.399176        -1.448143        -2.728142
