19
Iteration:  3928
 C        -0.037313        -0.223840         0.233331
 C         1.504295         0.009434         0.067509
 O         1.846968         1.412511         0.129802
 C         2.213892        -0.949237         1.034832
 C         2.963783        -1.956819         0.477130
 C         2.998002        -1.809727        -1.046919
 C         3.781975        -0.547751        -1.423756
 C         2.280929        -0.526111        -1.272089
 O         1.519950        -0.396551        -2.516834
 H        -0.710308         0.550325        -0.222628
 H        -0.300383        -1.251374        -0.083083
 H        -0.251646        -0.228456         1.288050
 H         1.030016         1.992057         0.332178
 H         2.176462        -0.813570         2.113717
 H         3.433303        -2.750406         0.948761
 H         2.858202        -2.678991        -1.715584
 H         4.431755        -0.020539        -0.687978
 H         4.082361        -0.540904        -2.453920
 H         2.031856         0.346282        -2.957812
