19
Iteration:  2002charge 0 multiplicity 1
 C         0.052668        -0.136286        -0.006287
 C         1.573998        -0.021612         0.031280
 O         1.968671         1.344100         0.139983
 C         2.233486        -0.953605         1.098421
 C         2.885716        -1.969754         0.542907
 C         3.008574        -1.797649        -0.946807
 C         3.666844        -0.483530        -1.419614
 C         2.156603        -0.540946        -1.287157
 O         1.390826        -0.330915        -2.405867
 H        -0.006271         0.576897        -0.792321
 H        -0.366788        -1.093590        -0.440354
 H        -0.394413         0.172512         0.874014
 H         2.878254         1.329120         0.462547
 H         2.036547        -0.860864         2.117980
 H         3.440320        -2.702860         1.116884
 H         3.169583        -2.607799        -1.697587
 H         4.157866         0.129661        -0.721779
 H         3.941771        -0.476162        -2.531531
 H         1.563902        -1.018023        -3.066449
