19
Iteration:  1978charge 0 multiplicity 1
 C        -0.036033        -0.018927         0.215728
 C         1.517176        -0.064559         0.021997
 O         1.958854         1.368520         0.077850
 C         2.171764        -0.996109         1.017537
 C         2.941262        -1.919950         0.494690
 C         3.019367        -1.861470        -0.962889
 C         3.640271        -0.412920        -1.339212
 C         2.170416        -0.628043        -1.324969
 O         1.500789        -0.388781        -2.490313
 H        -0.440877         0.725866        -0.428390
 H        -0.410119        -1.016323        -0.095334
 H        -0.194707         0.154309         1.301735
 H         2.878244         1.402352         0.208870
 H         2.148328        -0.713044         2.094189
 H         3.298512        -2.852315         0.917266
 H         3.246961        -2.657454        -1.701765
 H         4.124990        -0.165284        -0.378026
 H         4.053487        -0.250920        -2.301795
 H         1.957399        -0.664115        -3.281080
