19
Iteration:  3265charge 0 multiplicity 1
 C         0.127717        -0.311199        -0.198198
 C         1.629559         0.060810         0.034676
 O         1.825298         1.459588         0.229693
 C         2.308642        -0.855741         1.143038
 C         2.910811        -1.878745         0.550345
 C         2.926047        -1.869869        -0.958282
 C         3.766001        -0.587722        -1.521648
 C         2.216086        -0.577687        -1.231559
 O         1.373089        -0.376534        -2.349598
 H        -0.287564         0.096932        -1.082907
 H         0.048384        -1.499497        -0.227552
 H        -0.441456         0.008595         0.721813
 H         1.268511         1.851613         0.970260
 H         2.119980        -0.709360         2.212115
 H         3.495978        -2.777251         0.881878
 H         2.888118        -2.696876        -1.765523
 H         4.513933        -0.189494        -0.792407
 H         3.902720        -0.611448        -2.631191
 H         1.811593         0.258092        -2.966100
