19
Iteration:  2197charge 0 multiplicity 1
 C         0.114274        -0.222121         0.001573
 C         1.565667         0.088573         0.029063
 O         1.750041         1.484587         0.448524
 C         2.232782        -0.877317         1.075547
 C         3.018508        -1.822462         0.553736
 C         2.870263        -1.850691        -0.930813
 C         3.748815        -0.811864        -1.563013
 C         2.189418        -0.495440        -1.351210
 O         1.495618        -0.433325        -2.622750
 H        -0.381028         0.422955        -0.766721
 H        -0.045295        -1.356883        -0.183734
 H        -0.344433         0.060316         0.938070
 H         2.472132         1.566326         1.119297
 H         2.069294        -0.308092         2.060165
 H         3.337434        -2.677106         1.226832
 H         2.670816        -2.752759        -1.423100
 H         4.561273        -0.348725        -0.959919
 H         4.092994        -0.904768        -2.541739
 H         1.866093         0.191124        -3.244947
