19
Iteration:  3116charge 0 multiplicity 1
 C        -0.026959        -0.038735        -0.041994
 C         1.489938        -0.090136         0.087601
 O         1.968008         1.178323         0.497620
 C         2.111496        -0.969713         1.129924
 C         3.071294        -1.667374         0.547869
 C         3.058362        -1.684904        -0.917262
 C         3.764632        -0.564605        -1.596566
 C         2.172499        -0.510613        -1.348040
 O         1.386746        -0.579167        -2.574016
 H        -0.262716         0.607441        -0.957045
 H        -0.386164        -1.080196        -0.330781
 H        -0.502807         0.378561         0.822121
 H         1.837781         1.976933         0.036379
 H         1.924051        -0.810729         2.177291
 H         3.847515        -2.371035         0.916682
 H         2.888936        -2.710247        -1.417746
 H         4.474194         0.215268        -1.275271
 H         3.892273        -0.501117        -2.654992
 H         2.027856        -0.179918        -3.201194
