19
Iteration:  3048charge 0 multiplicity 1
 C         0.122429        -0.286205         0.073863
 C         1.684067         0.030530        -0.004421
 O         1.957834         1.457456         0.100772
 C         2.265980        -0.921334         1.099665
 C         2.763728        -2.051128         0.450478
 C         2.983421        -1.760379        -1.017195
 C         3.752301        -0.370937        -1.285713
 C         2.248316        -0.500347        -1.300869
 O         1.381540        -0.566085        -2.414542
 H        -0.487923         0.359272        -0.530308
 H        -0.066328        -1.380065        -0.395375
 H        -0.082499         0.097526         1.120383
 H         1.115547         1.863938        -0.164820
 H         1.867970        -0.784123         2.134304
 H         3.042787        -3.029594         0.821306
 H         3.078473        -2.516927        -1.712816
 H         4.105554         0.259849        -0.447718
 H         4.268757        -0.311831        -2.238176
 H         1.009974         0.305138        -2.541781
