19
Iteration:  2045charge 0 multiplicity 1
 C         0.049207        -0.062625        -0.068753
 C         1.585995        -0.004152         0.080055
 O         1.822936         1.439035         0.522864
 C         2.189205        -0.885313         0.992342
 C         2.925450        -1.877004         0.469327
 C         2.981776        -1.815843        -0.982472
 C         3.788645        -0.640252        -1.591369
 C         2.277202        -0.488864        -1.332965
 O         1.422058        -0.475035        -2.449636
 H        -0.242505         0.553672        -0.881868
 H        -0.241720        -1.119618        -0.372070
 H        -0.511341         0.222292         0.782591
 H         2.808211         1.600658         0.325620
 H         1.981912        -0.566172         1.953027
 H         3.284241        -2.669565         1.140046
 H         2.785262        -2.798910        -1.488019
 H         4.504558        -0.227638        -0.952327
 H         4.034098        -0.879181        -2.688822
 H         1.218947        -1.427009        -2.558163
