19
Iteration:  2439charge 0 multiplicity 1
 C         0.095889        -0.086415         0.324355
 C         1.556717         0.026042         0.069960
 O         1.817919         1.465683         0.130717
 C         2.271013        -0.911094         0.987901
 C         2.815822        -2.027737         0.429625
 C         2.903414        -1.829906        -1.015606
 C         3.647847        -0.493320        -1.331229
 C         2.137239        -0.599744        -1.239149
 O         1.704244        -0.538680        -2.664328
 H        -0.542971         0.618830        -0.362672
 H        -0.339609        -1.002709        -0.017770
 H        -0.181652         0.231028         1.404259
 H         2.745145         1.603076         0.032082
 H         2.030335        -0.902144         2.092900
 H         3.614251        -2.625353         1.003204
 H         3.003100        -2.736158        -1.646275
 H         4.164770        -0.049573        -0.439636
 H         3.909315        -0.398993        -2.335749
 H         1.222848         0.302823        -2.698698
