19
Iteration:  2231
 C         0.099415        -0.198908        -0.040036
 C         1.624460        -0.033550         0.049107
 O         1.780099         1.387710         0.129181
 C         2.215851        -0.856141         1.094210
 C         2.900645        -1.911991         0.571105
 C         2.945121        -1.832778        -0.996470
 C         3.774256        -0.650572        -1.522071
 C         2.271112        -0.478902        -1.216967
 O         1.419096        -0.395650        -2.368760
 H        -0.157454         0.618333        -0.785605
 H        -0.094561        -1.115429        -0.615159
 H        -0.433343        -0.084538         0.890775
 H         2.769231         1.480877         0.408516
 H         2.180601        -0.455573         2.142554
 H         3.196274        -2.883739         1.035393
 H         2.753672        -2.734746        -1.517077
 H         4.584812        -0.286185        -0.860723
 H         3.937843        -0.609930        -2.562876
 H         1.213814         0.563690        -2.351762
