19
Iteration:  2482charge 0 multiplicity 1
 C         0.113854        -0.265999        -0.038171
 C         1.608946        -0.010029         0.045004
 O         1.845259         1.415570         0.184002
 C         2.192255        -0.845079         1.060785
 C         2.903434        -1.897342         0.553215
 C         2.932750        -1.849549        -0.948549
 C         3.826347        -0.712730        -1.414687
 C         2.261172        -0.532932        -1.329571
 O         1.288578        -0.276023        -2.367318
 H        -0.086696        -0.125610        -1.171229
 H        -0.071366        -1.327129         0.096666
 H        -0.523078         0.444332         0.622582
 H         2.824551         1.520656        -0.027577
 H         2.124254        -0.671821         2.200146
 H         3.430728        -2.761556         1.115699
 H         2.972577        -2.733489        -1.606034
 H         4.527537         0.018951        -0.930914
 H         4.138812        -0.896607        -2.393150
 H         1.556898         0.481073        -2.885923
