19
Iteration:  1633
 C        -0.056357        -0.083023        -0.138764
 C         1.510542        -0.005678        -0.000582
 O         1.972541         1.324460         0.376049
 C         2.186496        -0.893230         1.095447
 C         2.945698        -1.902432         0.528412
 C         3.018034        -1.837667        -0.974656
 C         3.636588        -0.624206        -1.430565
 C         2.233557        -0.562941        -1.253595
 O         1.489887        -0.397496        -2.442446
 H        -0.411945         0.875340        -0.506858
 H        -0.283635        -0.905570        -0.845310
 H        -0.470203        -0.447552         0.810815
 H         2.110781         1.923595        -0.433244
 H         2.075778        -0.680350         2.172965
 H         3.657528        -2.367365         1.248037
 H         2.911253        -2.697033        -1.662348
 H         4.205455         0.031553        -0.783581
 H         4.057462        -0.564891        -2.498481
 H         2.165734        -0.281150        -3.118260
