19
Iteration:  4697
 C         0.081922        -0.239945         0.065362
 C         1.620168        -0.068626         0.049950
 O         1.895463         1.347099         0.247062
 C         2.235387        -0.914459         1.103141
 C         2.956591        -1.919303         0.483691
 C         2.983342        -1.786044        -1.020025
 C         3.638857        -0.548914        -1.403020
 C         2.110700        -0.614170        -1.290689
 O         1.508964        -0.180398        -2.535167
 H        -0.306207        -1.277109        -0.144661
 H        -0.194968        -0.005300         1.174760
 H        -0.521418         0.452753        -0.607942
 H         2.739592         1.606448        -0.289171
 H         2.035037        -0.833163         2.136607
 H         3.400226        -2.708912         1.053945
 H         2.888203        -2.764693        -1.561386
 H         4.120936        -0.139347        -0.552910
 H         4.010084        -0.211103        -2.346305
 H         0.951289        -0.866345        -2.898870
