19
Iteration:  4969charge 0 multiplicity 1
 C         0.116383        -0.172029         0.137953
 C         1.569036        -0.032155        -0.037303
 O         1.901442         1.386642         0.254973
 C         2.194436        -0.967257         1.030171
 C         2.904054        -1.952453         0.538961
 C         3.002500        -1.721062        -1.003162
 C         3.674205        -0.436009        -1.377710
 C         2.180895        -0.467909        -1.369526
 O         1.411754        -0.560610        -2.491644
 H        -0.360227         0.522696        -0.480385
 H        -0.190699        -1.181852        -0.202916
 H        -0.186013        -0.072347         1.132318
 H         2.674669         1.565860        -0.169772
 H         2.062946        -0.712624         2.086744
 H         3.330445        -2.799238         1.103341
 H         3.295528        -2.537051        -1.710915
 H         4.133385        -0.104288        -0.499100
 H         4.259400        -0.341049        -2.264811
 H         1.378203         0.238412        -3.024324
