19
Iteration:  2882
 C         0.009691        -0.001389         0.191758
 C         1.529874        -0.086039        -0.013442
 O         1.889411         1.222404         0.139632
 C         2.147636        -1.055673         1.034464
 C         3.019602        -1.964263         0.551868
 C         2.971856        -1.681966        -0.959082
 C         3.680044        -0.293216        -1.354696
 C         2.133494        -0.585062        -1.318099
 O         1.549903        -0.584149        -2.564539
 H        -0.483369         0.654946        -0.639914
 H        -0.597340        -0.864470         0.092644
 H        -0.281422         0.687687         1.067427
 H         2.892799         1.432588        -0.000142
 H         2.109132        -0.800457         2.069436
 H         3.780762        -2.427576         1.212199
 H         2.938180        -2.527116        -1.747083
 H         4.244738         0.227374        -0.519057
 H         4.010068        -0.164574        -2.316371
 H         1.561375         0.372399        -2.803773
