19
Iteration:   177
 C         0.000729        -0.110524        -0.076270
 C         1.558507         0.031060         0.030396
 O         1.949919         1.370581         0.296320
 C         2.182475        -0.833971         1.051746
 C         2.871232        -1.904605         0.524389
 C         3.034168        -1.831784        -0.948154
 C         3.839495        -0.588995        -1.289449
 C         2.274983        -0.564410        -1.294230
 O         1.414870        -0.516973        -2.585627
 H        -0.377866        -0.749858         0.774047
 H        -0.512375         0.884944        -0.063039
 H        -0.184775        -0.667272        -0.934173
 H         1.044688         1.765010         0.490095
 H         1.999185        -0.459377         2.074258
 H         3.037257        -2.828462         1.085268
 H         2.922387        -2.666160        -1.664762
 H         4.339356        -0.134463        -0.494411
 H         4.207967        -0.636913        -2.346721
 H         1.671972         0.281015        -3.056781
