19
Iteration:  4942
 C        -0.051867         0.034591         0.078103
 C         1.472883        -0.087800         0.080750
 O         1.922215         1.326100         0.252795
 C         2.102529        -1.022095         1.056089
 C         3.013582        -1.900506         0.442327
 C         3.173919        -1.733520        -1.046681
 C         3.746012        -0.425993        -1.475118
 C         2.161958        -0.600046        -1.268050
 O         1.459849        -0.560810        -2.448851
 H        -0.376295         0.291883        -0.983109
 H        -0.499589        -0.976674         0.178725
 H        -0.583613         0.776612         0.765651
 H         2.834068         1.303370         0.222988
 H         2.068761        -1.033247         2.150214
 H         3.650786        -2.530864         1.057704
 H         3.207385        -2.622304        -1.693249
 H         4.470520         0.210105        -0.857168
 H         3.925991        -0.229705        -2.565194
 H         0.874495         0.192602        -2.331886
