19
Iteration:  3247
 C         0.033101        -0.211493        -0.039012
 C         1.557188        -0.024613         0.098684
 O         1.845064         1.383861         0.240646
 C         2.265784        -0.927985         1.092189
 C         3.029501        -1.846955         0.538543
 C         2.931912        -1.795338        -0.953906
 C         3.685819        -0.626142        -1.526883
 C         2.212455        -0.430392        -1.291538
 O         1.506192        -0.452587        -2.450138
 H        -0.078465         0.341673        -0.955226
 H        -0.164495        -1.259247        -0.263695
 H        -0.520552         0.164802         0.781446
 H         1.015156         1.712022         0.729891
 H         2.248577        -0.717409         2.157138
 H         3.614025        -2.507087         1.108556
 H         2.557846        -2.690304        -1.509089
 H         4.305463        -0.179095        -0.832237
 H         3.875595        -0.725844        -2.626835
 H         2.055548         0.127421        -3.035626
