19
Iteration:  2487
 C         0.123795        -0.269428        -0.100345
 C         1.622148         0.037807         0.024971
 O         1.838066         1.421704         0.195124
 C         2.177357        -0.891513         1.076010
 C         2.951766        -1.881077         0.599036
 C         2.946442        -1.864296        -0.978398
 C         3.773850        -0.700581        -1.441049
 C         2.235297        -0.543858        -1.335033
 O         1.314497        -0.264204        -2.309534
 H        -0.188563        -0.130982        -1.077295
 H        -0.170945        -1.359211         0.016472
 H        -0.434695         0.413975         0.479415
 H         2.799242         1.610214         0.094373
 H         2.277068        -0.645803         2.097969
 H         3.312481        -2.729773         1.084739
 H         2.992819        -2.847348        -1.450797
 H         4.471765        -0.105742        -0.870995
 H         4.053608        -1.002335        -2.528567
 H         1.580738         0.452309        -2.931750
