19
Iteration:  2102
 C        -0.020462        -0.047062         0.105200
 C         1.544559        -0.048133        -0.063240
 O         1.978048         1.329366         0.129110
 C         2.182814        -0.930594         1.023033
 C         2.854597        -1.943075         0.521303
 C         3.079119        -1.795651        -0.995009
 C         3.704330        -0.490782        -1.318704
 C         2.192488        -0.626538        -1.344840
 O         1.456938        -0.425541        -2.494739
 H        -0.690796         0.666061        -0.456296
 H        -0.261761        -1.081237        -0.028086
 H        -0.117773         0.075684         1.167545
 H         2.898479         1.263975         0.211196
 H         1.906839        -0.706867         2.141454
 H         3.602657        -2.568525         1.132453
 H         3.366949        -2.693345        -1.495879
 H         4.171244         0.126876        -0.426505
 H         4.151912        -0.148740        -2.220254
 H         0.676703        -0.005826        -2.108057
