19
Iteration:  4172charge 0 multiplicity 1
 C         0.237351        -0.480970         0.115961
 C         1.640666        -0.000172         0.014782
 O         1.627092         1.394480         0.221601
 C         2.334870        -0.871326         1.054392
 C         2.826750        -1.920174         0.497930
 C         2.859621        -1.843371        -0.995245
 C         3.739498        -0.723705        -1.403792
 C         2.235995        -0.386630        -1.311929
 O         1.530879        -0.144485        -2.505129
 H         0.004674        -1.597111         0.360058
 H        -0.331050         0.100318         0.850559
 H        -0.270996        -0.045792        -0.865936
 H         2.454016         1.739314        -0.133044
 H         2.149003        -0.563288         2.128946
 H         3.296192        -2.783914         0.997796
 H         2.604882        -2.758987        -1.613071
 H         4.377313        -0.431548        -0.529177
 H         4.165844        -0.898146        -2.429665
 H         1.632338         0.777581        -2.680685
