19
Iteration:  3425
 C        -0.009450        -0.052376        -0.130289
 C         1.505426        -0.038557        -0.018450
 O         2.031480         1.325154         0.419953
 C         2.122934        -1.021136         1.010334
 C         3.040318        -1.841549         0.526807
 C         3.090048        -1.685599        -0.991966
 C         3.662322        -0.367893        -1.475722
 C         2.205749        -0.543275        -1.305028
 O         1.374832        -0.704368        -2.442339
 H        -0.203452         0.895062        -0.863412
 H        -0.481325        -0.938498        -0.431593
 H        -0.311699         0.229171         0.943479
 H         1.949836         1.290365         1.417414
 H         1.946335        -0.831308         2.054180
 H         3.746284        -2.452736         1.091598
 H         3.052893        -2.609095        -1.697516
 H         4.203844         0.268753        -0.787478
 H         4.065755        -0.495456        -2.567985
 H         1.239026         0.114965        -2.971044
