19
Iteration:  1797
 C         0.061906        -0.136000        -0.003368
 C         1.632943         0.007522        -0.019336
 O         2.007078         1.334629         0.246421
 C         2.174429        -0.923425         1.023233
 C         2.892686        -1.955709         0.532777
 C         3.018944        -1.817145        -0.978755
 C         3.715585        -0.490299        -1.291109
 C         2.208808        -0.567753        -1.333988
 O         1.311929        -0.412105        -2.430731
 H        -0.416897         0.718653        -0.469691
 H        -0.321841        -1.070847        -0.545863
 H        -0.322209        -0.323637         0.982260
 H         1.919985         1.939992        -0.512606
 H         2.050456        -0.638359         2.085152
 H         3.020888        -2.793100         1.144474
 H         3.145963        -2.711840        -1.565135
 H         4.383489         0.166313        -0.682352
 H         4.186428        -0.403329        -2.201055
 H         1.898986        -0.240978        -3.216175
