19
Iteration:   477
 C         0.013688        -0.074225         0.029454
 C         1.521000        -0.101335        -0.066069
 O         1.812493         1.291199         0.107785
 C         2.122375        -0.910723         1.094234
 C         2.906916        -1.860404         0.615384
 C         3.084487        -1.877604        -0.862030
 C         3.697234        -0.599846        -1.355524
 C         2.208364        -0.602729        -1.303298
 O         1.651997        -0.258986        -2.567826
 H        -0.326796        -0.693839         0.955877
 H        -0.330831         1.009500         0.098627
 H        -0.591427        -0.422834        -0.807892
 H         2.674442         1.590329         0.519219
 H         1.851673        -0.588274         2.137127
 H         3.395136        -2.663317         1.180748
 H         3.339435        -2.649406        -1.547364
 H         4.310011         0.158641        -0.742068
 H         3.982009        -0.581433        -2.395903
 H         0.734426        -0.541078        -2.656240
