19
Iteration:  3632charge 0 multiplicity 1
 C         0.123621        -0.240751         0.004584
 C         1.603285        -0.003949         0.004558
 O         1.800361         1.399152         0.010603
 C         2.198350        -0.988487         1.112250
 C         2.828906        -1.983142         0.506838
 C         2.993856        -1.772466        -0.947082
 C         3.721252        -0.415430        -1.381305
 C         2.252227        -0.558532        -1.235940
 O         1.505478        -0.393565        -2.371032
 H        -0.675284         0.586389        -0.406357
 H        -0.106576        -1.147072        -0.535941
 H        -0.235748        -0.343256         1.116088
 H         2.711679         1.486082        -0.237671
 H         2.039308        -0.847526         2.202480
 H         3.244106        -2.885336         0.936355
 H         2.932149        -2.535107        -1.683486
 H         4.415947         0.025459        -0.582445
 H         4.293077        -0.437497        -2.330048
 H         0.942587         0.374888        -2.266448
