19
Iteration:   422
 C         0.116559        -0.175283        -0.116043
 C         1.559803         0.020695         0.052176
 O         1.810162         1.426624         0.223950
 C         2.139919        -0.918374         1.088290
 C         2.752522        -2.004280         0.520352
 C         2.985996        -1.824316        -0.885204
 C         3.768748        -0.454703        -1.430272
 C         2.284531        -0.480635        -1.238920
 O         1.526648        -0.528950        -2.434180
 H        -0.408344        -0.651124         0.774070
 H        -0.503070         0.763922        -0.208790
 H        -0.208012        -0.723329        -1.036869
 H         2.610688         1.571760        -0.271828
 H         2.090088        -0.876875         2.232794
 H         3.386742        -2.730375         1.125609
 H         2.845586        -2.533889        -1.697246
 H         4.413068         0.050927        -0.672853
 H         4.313882        -0.460480        -2.434387
 H         1.880531         0.079651        -3.106026
