19
Iteration:  3766
 C        -0.008386        -0.081597        -0.020122
 C         1.564283        -0.053152         0.010402
 O         2.116364         1.357999         0.191041
 C         2.091981        -1.039608         1.086978
 C         2.902055        -2.038737         0.529388
 C         3.154408        -1.698841        -0.913161
 C         3.641553        -0.229211        -1.395649
 C         2.144950        -0.476730        -1.352446
 O         1.446049        -0.697177        -2.511338
 H        -0.366348         0.881540        -0.450014
 H        -0.412818        -0.991839        -0.662305
 H        -0.434758        -0.064390         0.972498
 H         1.933085         1.680094         1.039024
 H         1.913292        -0.967697         2.215350
 H         3.497299        -2.603402         1.224581
 H         3.230218        -2.447919        -1.709430
 H         3.998219         0.462179        -0.617249
 H         4.035374        -0.334335        -2.345840
 H         0.843514         0.025740        -2.678923
