19
Iteration:  1701charge 0 multiplicity 1
 C         0.021850        -0.127155         0.056879
 C         1.586544         0.054078         0.033311
 O         1.986634         1.413998         0.172248
 C         2.192217        -0.898597         1.059062
 C         2.786244        -2.022746         0.490692
 C         2.952952        -1.809140        -1.000051
 C         3.670352        -0.444800        -1.354005
 C         2.188932        -0.555541        -1.251302
 O         1.595985        -0.560761        -2.549260
 H        -0.496283         0.253177        -0.828005
 H        -0.337530        -1.215546         0.261272
 H        -0.282221         0.432210         0.913188
 H         2.475751         1.412045         0.953455
 H         1.844750        -1.051790         2.120880
 H         3.348321        -2.762878         1.030957
 H         2.943981        -2.475058        -1.853078
 H         4.377187         0.188322        -0.645084
 H         4.066904        -0.242373        -2.353614
 H         1.068794         0.264295        -2.774871
