19
Iteration:  4283
 C        -0.043736         0.071387         0.100381
 C         1.594685        -0.062959         0.054519
 O         1.987184         1.264968         0.414892
 C         1.966034        -1.144458         1.034798
 C         2.962627        -1.908730         0.393193
 C         3.110305        -1.622985        -1.070300
 C         3.688730        -0.243566        -1.460034
 C         2.208222        -0.496305        -1.326443
 O         1.481946        -0.758417        -2.450567
 H        -0.607239        -0.891729         0.463569
 H        -0.136062         1.066764         0.617430
 H        -0.248855         0.245478        -1.036919
 H         2.757057         1.393932        -0.149194
 H         1.759912        -1.398776         2.063454
 H         3.455694        -2.730578         0.962969
 H         3.182868        -2.361629        -1.815203
 H         4.057277         0.299505        -0.537185
 H         4.153183        -0.110220        -2.466466
 H         1.391304         0.070551        -3.019730
