19
Iteration:   346charge 0 multiplicity 1
 C        -0.031324        -0.093074        -0.200725
 C         1.497190        -0.062673         0.051391
 O         1.923007         1.284931         0.159198
 C         2.179739        -0.979061         1.110355
 C         2.995868        -1.890298         0.574380
 C         3.077183        -1.837656        -0.942283
 C         3.625483        -0.523740        -1.319382
 C         2.150891        -0.515626        -1.257237
 O         1.519864        -0.333044        -2.446264
 H        -0.664683         0.781427         0.128641
 H        -0.345269        -0.005610        -1.243664
 H        -0.526878        -0.982702         0.301750
 H         2.691011         1.499411         0.788583
 H         1.847932        -1.048205         2.186936
 H         3.657522        -2.522525         1.185101
 H         3.073205        -2.747806        -1.578155
 H         4.147009         0.104645        -0.626760
 H         4.005575        -0.353313        -2.406018
 H         2.199262        -0.318373        -3.123522
