19
Iteration:  1586
 C         0.092527        -0.146605        -0.091792
 C         1.625885         0.077309        -0.035054
 O         1.918730         1.413283         0.389838
 C         2.159654        -0.926660         0.986223
 C         2.804789        -2.002258         0.504509
 C         3.014248        -1.810316        -0.891834
 C         3.829734        -0.565062        -1.425910
 C         2.272566        -0.564645        -1.306579
 O         1.351211        -0.399496        -2.450334
 H        -0.365619         0.335151        -1.003423
 H        -0.130403        -1.202675        -0.056720
 H        -0.328051         0.365602         0.866804
 H         1.087026         1.823600         0.329373
 H         1.893055        -0.701691         2.028713
 H         3.363984        -2.736901         1.118195
 H         3.044522        -2.668393        -1.564318
 H         4.560593        -0.168596        -0.704816
 H         4.179260        -0.642676        -2.438600
 H         1.898385        -0.548744        -3.258765
