19
Iteration:   461
 C        -0.048636        -0.116765         0.011827
 C         1.481781        -0.036005        -0.060684
 O         1.862936         1.342006         0.103098
 C         2.113116        -0.946184         1.025482
 C         2.927211        -1.929167         0.626287
 C         3.048468        -1.877381        -0.887470
 C         3.713970        -0.509128        -1.292849
 C         2.235684        -0.600442        -1.337249
 O         1.590287        -0.305484        -2.566666
 H        -0.370271        -0.742047         0.762387
 H        -0.268700         0.894750         0.183453
 H        -0.301111        -0.674063        -0.923649
 H         2.857995         1.301536         0.435744
 H         2.258164        -0.560644         2.045914
 H         3.692420        -2.209502         1.361485
 H         3.109890        -2.941638        -1.237577
 H         4.207907        -0.089452        -0.470582
 H         4.265059        -0.661442        -2.265939
 H         0.748307         0.091866        -2.297037
