19
Iteration:  1753charge 0 multiplicity 1
 C         0.002256        -0.064403        -0.120974
 C         1.532535        -0.047255         0.015930
 O         2.001329         1.370066         0.351890
 C         2.130415        -0.954196         1.010039
 C         3.004120        -1.866261         0.559708
 C         3.083175        -1.856964        -0.910523
 C         3.624324        -0.636763        -1.550904
 C         2.239507        -0.508091        -1.259039
 O         1.425333        -0.407744        -2.410843
 H        -0.115523         0.097110        -1.181922
 H        -0.404365        -1.082650         0.220846
 H        -0.549593         0.614504         0.525381
 H         1.181058         1.743866         0.678891
 H         2.036802        -0.750482         2.131037
 H         3.375999        -2.747269         1.026215
 H         2.954614        -2.708669        -1.556929
 H         4.434854        -0.077435        -0.994825
 H         4.044110        -0.574894        -2.521978
 H         1.938593         0.106230        -3.090461
