19
Iteration:  1491
 C        -0.013630        -0.090825         0.004189
 C         1.574865         0.014667        -0.004114
 O         1.914470         1.336820         0.402500
 C         2.168874        -0.972625         1.096842
 C         2.878806        -1.909403         0.503669
 C         2.928892        -1.780252        -0.973588
 C         3.733592        -0.628691        -1.465365
 C         2.277534        -0.413145        -1.347231
 O         1.560769        -0.526763        -2.529343
 H        -0.538332         0.760071        -0.392643
 H        -0.392039        -0.990158        -0.489713
 H        -0.264779        -0.022253         1.073929
 H         1.693482         1.942135        -0.376170
 H         2.052850        -0.800013         2.180494
 H         3.591026        -2.551887         1.076786
 H         2.683815        -2.685722        -1.520876
 H         4.332963        -0.136448        -0.697446
 H         4.163911        -0.672464        -2.440881
 H         1.605699         0.363006        -2.935696
