19
Iteration:  4251
 C         0.032427        -0.091987         0.112235
 C         1.553924        -0.050333        -0.003061
 O         1.934285         1.285872         0.407457
 C         2.167406        -1.021738         0.999739
 C         2.909731        -1.929372         0.502040
 C         3.085611        -1.713295        -1.009408
 C         3.639269        -0.403155        -1.366876
 C         2.169192        -0.558720        -1.330040
 O         1.449362        -0.518446        -2.626050
 H        -0.559885        -0.846210         0.701751
 H        -0.389320         0.879131         0.466615
 H        -0.475323        -0.213880        -0.881393
 H         2.915441         1.499052         0.277260
 H         2.125648        -0.774814         2.034793
 H         3.398268        -2.703953         1.117751
 H         3.359021        -2.417028        -1.740035
 H         4.234995         0.279938        -0.708512
 H         3.974280        -0.296065        -2.417772
 H         1.696546         0.337686        -2.991436
