19
Iteration:  4077
 C         0.034041        -0.050502        -0.103436
 C         1.578943        -0.025663         0.019090
 O         2.009223         1.215954         0.328620
 C         2.005042        -1.044070         1.015070
 C         3.004091        -1.870290         0.477852
 C         3.100997        -1.654042        -1.003380
 C         3.660806        -0.295233        -1.419176
 C         2.185664        -0.557576        -1.233152
 O         1.401313        -0.623210        -2.385220
 H        -0.350138        -0.164020        -1.203041
 H        -0.464771        -0.786477         0.443436
 H        -0.487001         0.915277         0.263412
 H         2.887921         1.301607        -0.023795
 H         1.918349        -0.931313         2.125725
 H         3.663078        -2.652661         0.950979
 H         3.245891        -2.522875        -1.704929
 H         4.310526         0.056489        -0.507845
 H         3.792776        -0.219972        -2.569707
 H         1.192941         0.288648        -2.678168
