19
Iteration:  2687
 C         0.066875        -0.140431        -0.009306
 C         1.641980         0.057777         0.017428
 O         1.805709         1.447581         0.369611
 C         2.261004        -0.881092         1.003725
 C         2.819928        -1.979091         0.455080
 C         3.002937        -1.764923        -1.025168
 C         3.794113        -0.609423        -1.435429
 C         2.270295        -0.463759        -1.321365
 O         1.382654        -0.584287        -2.448414
 H        -0.585443         0.169439        -0.867343
 H        -0.112613        -1.150819         0.153479
 H        -0.374123         0.380333         0.870880
 H         2.764171         1.622673         0.614248
 H         1.920336        -0.788993         2.054273
 H         3.365227        -2.676398         1.060408
 H         2.972833        -2.651423        -1.594413
 H         4.407374        -0.078962        -0.791803
 H         4.162198        -0.807438        -2.497932
 H         1.289810         0.350770        -2.744165
