19
Iteration:   913charge 0 multiplicity 1
 C        -0.084745         0.070567         0.051493
 C         1.513530        -0.004048        -0.012626
 O         1.936841         1.333459         0.196864
 C         2.148323        -0.948722         1.029483
 C         2.806725        -1.991345         0.578846
 C         3.058601        -1.736564        -0.907817
 C         3.791889        -0.454919        -1.238013
 C         2.205562        -0.592866        -1.384113
 O         1.599266        -0.615592        -2.644388
 H        -0.222137         0.920421         0.681707
 H        -0.562944         0.267572        -0.927511
 H        -0.355410        -0.955649         0.317961
 H         2.801975         1.181390         0.688773
 H         1.900980        -0.656607         2.033364
 H         3.253294        -2.785703         1.161987
 H         3.226956        -2.601725        -1.558986
 H         4.161789         0.236205        -0.513725
 H         4.271569        -0.326188        -2.244428
 H         0.785774        -0.068349        -2.679850
