19
Iteration:   209
 C         0.011366        -0.192766        -0.188587
 C         1.578224        -0.046404        -0.022613
 O         1.992124         1.402049         0.056562
 C         2.073857        -1.017949         1.059620
 C         2.934773        -1.982706         0.645696
 C         3.005739        -1.797301        -0.831065
 C         3.690591        -0.450391        -1.388224
 C         2.208213        -0.506167        -1.202544
 O         1.472464        -0.378072        -2.386996
 H        -0.354314        -0.319215         0.888338
 H        -0.457829         0.752094        -0.658782
 H        -0.138945        -1.042364        -0.748731
 H         2.275463         1.575289         1.006573
 H         1.719205        -0.755425         2.087783
 H         3.259623        -2.895135         1.169937
 H         2.934991        -2.619906        -1.576256
 H         4.449877         0.180839        -1.001503
 H         3.914984        -0.603097        -2.484910
 H         2.044783         0.080560        -3.045906
