19
Iteration:  4813
 C         0.016576        -0.208778         0.019658
 C         1.533832        -0.087061         0.048176
 O         1.914516         1.400780         0.230657
 C         2.176797        -0.987100         1.045726
 C         3.019253        -1.900640         0.458047
 C         2.995107        -1.854363        -1.031309
 C         3.680737        -0.533069        -1.339732
 C         2.184295        -0.523997        -1.273311
 O         1.437097        -0.346363        -2.469572
 H        -0.305998        -0.963365        -0.704476
 H        -0.239245        -0.627280         0.894726
 H        -0.587957         0.689897        -0.100705
 H         2.950550         1.363958         0.082293
 H         2.166053        -0.594503         2.013420
 H         3.804337        -2.481651         0.911796
 H         3.012556        -2.717364        -1.735651
 H         4.310874         0.031658        -0.582771
 H         3.930540        -0.230306        -2.391359
 H         1.162097         0.606792        -2.475267
