19
Iteration:    42charge 0 multiplicity 1
 C         0.025146        -0.059776         0.045604
 C         1.566908        -0.003462        -0.027621
 O         1.885689         1.304023         0.424900
 C         2.130450        -0.912439         1.006105
 C         2.878104        -1.865873         0.492150
 C         3.065293        -1.761148        -1.005407
 C         3.685533        -0.461831        -1.410634
 C         2.201857        -0.587290        -1.313308
 O         1.542144        -0.509050        -2.518131
 H        -0.347522         0.722818         0.657119
 H        -0.482054         0.145906        -0.890879
 H        -0.322817        -0.983915         0.658897
 H         2.619268         1.643013        -0.199614
 H         1.708237        -0.961576         2.031663
 H         3.230512        -2.691847         1.111237
 H         2.934646        -2.612120        -1.654641
 H         4.295762         0.101795        -0.749095
 H         4.091889        -0.382953        -2.443299
 H         1.901255        -1.066082        -3.249281
