19
Iteration:  4684
 C         0.056672        -0.142110         0.086027
 C         1.534396        -0.057446        -0.001215
 O         1.916920         1.307576         0.244268
 C         2.206503        -1.015051         1.058665
 C         2.929372        -1.936730         0.489056
 C         3.062669        -1.806763        -0.965688
 C         3.712826        -0.471380        -1.361927
 C         2.163935        -0.525308        -1.336266
 O         1.409873        -0.252551        -2.490680
 H        -0.244754        -1.132620        -0.436536
 H        -0.319166        -0.117525         1.112369
 H        -0.348016         0.813654        -0.485984
 H         2.642063         1.441759        -0.365132
 H         2.122243        -0.749646         2.106331
 H         3.662560        -2.668156         0.917918
 H         3.112846        -2.637527        -1.773091
 H         4.338449         0.105150        -0.624029
 H         4.194745        -0.698325        -2.305194
 H         0.724557        -0.959444        -2.608950
