19
Iteration:  1492
 C        -0.014982        -0.086333         0.012845
 C         1.576336         0.006236        -0.002859
 O         1.918715         1.333676         0.400166
 C         2.159897        -0.968210         1.092113
 C         2.882231        -1.903861         0.509011
 C         2.933318        -1.780908        -0.976557
 C         3.731688        -0.632140        -1.457303
 C         2.275943        -0.414919        -1.340293
 O         1.560668        -0.521387        -2.536035
 H        -0.548632         0.764967        -0.405674
 H        -0.431712        -1.029364        -0.468832
 H        -0.285770        -0.059616         1.082222
 H         1.696129         1.938633        -0.402537
 H         2.075794        -0.758064         2.140434
 H         3.572764        -2.567917         1.044414
 H         2.703955        -2.683784        -1.543564
 H         4.322308        -0.114214        -0.724526
 H         4.199301        -0.691106        -2.453863
 H         1.612332         0.369643        -2.915766
