19
Iteration:  2330charge 0 multiplicity 1
 C        -0.001348         0.061693         0.011351
 C         1.539613        -0.006485        -0.007222
 O         1.860695         1.385476         0.501460
 C         2.191925        -0.920412         0.984394
 C         3.012808        -1.869923         0.472086
 C         3.038103        -1.795422        -1.019525
 C         3.726663        -0.540979        -1.518663
 C         2.189198        -0.576108        -1.363789
 O         1.421554        -0.644310        -2.467967
 H        -0.328701         0.349178        -1.062067
 H        -0.393281        -0.920273         0.107772
 H        -0.318262         0.747690         0.853122
 H         2.802758         1.330879         0.896688
 H         1.805374        -1.037290         1.937960
 H         3.633956        -2.500848         1.057887
 H         3.093784        -2.733298        -1.692210
 H         4.350800        -0.060495        -0.802262
 H         4.152182        -0.728565        -2.541488
 H         1.429466         0.272303        -2.774889
