19
Iteration:  1097
 C         0.036378        -0.136381        -0.120663
 C         1.589288        -0.066227         0.026688
 O         1.868676         1.372969         0.167217
 C         2.183874        -0.976654         1.103652
 C         2.814100        -1.986356         0.542363
 C         2.959109        -1.722663        -0.957640
 C         3.769725        -0.434582        -1.366414
 C         2.234542        -0.569396        -1.245172
 O         1.534501        -0.453148        -2.410303
 H        -0.404551         0.630888        -0.767918
 H        -0.184142        -1.022434        -0.786190
 H        -0.532658        -0.329317         0.848775
 H         2.703303         1.658923        -0.113669
 H         1.939800        -0.804833         2.182894
 H         3.273363        -2.799926         1.184177
 H         2.878246        -2.521374        -1.722936
 H         4.355238        -0.063310        -0.549540
 H         4.117648        -0.459779        -2.381051
 H         1.472415         0.509513        -2.578367
