19
Iteration:  3539charge 0 multiplicity 1
 C         0.140559        -0.232262        -0.081432
 C         1.643147        -0.020282         0.027262
 O         1.813302         1.424521         0.382913
 C         2.211372        -0.880364         1.095258
 C         2.947336        -1.880885         0.519658
 C         2.966352        -1.833319        -0.970676
 C         3.702397        -0.573825        -1.494520
 C         2.239270        -0.509699        -1.315600
 O         1.448802        -0.460194        -2.438122
 H        -0.153235         0.195833        -0.992714
 H        -0.283066        -1.332071        -0.167578
 H        -0.438117         0.313112         0.646346
 H         0.902248         1.785296         0.045699
 H         1.995892        -0.590453         2.102116
 H         3.572168        -2.639210         1.096850
 H         2.856797        -2.729236        -1.610002
 H         4.542667        -0.217812        -0.949202
 H         4.014753        -0.639940        -2.563293
 H         1.708940         0.403685        -2.856949
