19
Iteration:   277
 C        -0.087580        -0.079280        -0.030277
 C         1.492017        -0.035946         0.091631
 O         1.877262         1.514650         0.397331
 C         2.150060        -0.947220         1.109254
 C         2.862061        -1.949038         0.410725
 C         2.953223        -1.800344        -1.006760
 C         3.719855        -0.484708        -1.358870
 C         2.259059        -0.569081        -1.299832
 O         1.739709        -0.615685        -2.591297
 H        -0.429046         0.902747         0.262959
 H        -0.356266        -0.058152        -1.098210
 H        -0.538840        -0.943605         0.563874
 H         2.551052         1.676349        -0.215375
 H         2.065137        -0.916146         2.215279
 H         3.313916        -2.714383         1.035906
 H         3.094409        -2.613696        -1.697655
 H         4.303190         0.020690        -0.481536
 H         4.037836        -0.533921        -2.377136
 H         1.023486        -0.007906        -2.873938
