19
Iteration:  2477charge 0 multiplicity 1
 C         0.090069        -0.247440        -0.000485
 C         1.598865        -0.038141         0.035951
 O         1.855939         1.406708         0.172817
 C         2.245733        -0.838292         1.085943
 C         2.847508        -1.920425         0.521175
 C         2.928096        -1.827160        -0.914362
 C         3.847663        -0.698746        -1.407606
 C         2.276265        -0.522343        -1.308617
 O         1.288835        -0.302071        -2.428611
 H        -0.126528        -0.049139        -1.001840
 H        -0.024628        -1.314216         0.290110
 H        -0.476302         0.310108         0.669282
 H         2.758979         1.470432        -0.083072
 H         1.938639        -0.691034         2.074758
 H         3.426773        -2.584793         1.072951
 H         2.916387        -2.625139        -1.676492
 H         4.495896        -0.043953        -0.858130
 H         4.265426        -0.769083        -2.474715
 H         1.600304         0.548176        -2.842740
