19
Iteration:  3290charge 0 multiplicity 1
 C         0.149280        -0.386906         0.000189
 C         1.628590         0.020002         0.000003
 O         1.850621         1.381475         0.135661
 C         2.241189        -0.818994         1.030533
 C         2.860532        -1.955272         0.570517
 C         2.955245        -1.833241        -0.864566
 C         3.805427        -0.607060        -1.432210
 C         2.235957        -0.432542        -1.339291
 O         1.371185        -0.342874        -2.455356
 H        -0.429839         0.233741        -0.678779
 H        -0.003263        -1.458821        -0.276724
 H        -0.146634        -0.276931         1.025682
 H         1.595029         1.930864         0.974935
 H         2.149656        -0.569437         2.083140
 H         3.229943        -2.774828         1.061078
 H         2.901821        -2.573666        -1.635045
 H         4.194139        -0.001171        -0.682744
 H         4.277248        -0.761044        -2.413136
 H         1.283360         0.615043        -2.716022
