19
Iteration:  2384
 C         0.023374        -0.040160        -0.024135
 C         1.555208        -0.012666         0.022130
 O         2.013403         1.364101         0.257473
 C         2.051201        -1.017283         1.078441
 C         2.967889        -1.881836         0.584808
 C         3.104715        -1.762244        -1.014233
 C         3.660876        -0.450820        -1.487124
 C         2.211217        -0.584343        -1.241796
 O         1.351864        -0.559343        -2.462973
 H        -0.409308         0.999528        -0.258116
 H        -0.245405        -0.803360        -0.697757
 H        -0.285602        -0.398590         0.994482
 H         2.992299         1.355249         0.053672
 H         1.919541        -0.873439         2.101133
 H         3.357950        -2.797697         1.011281
 H         3.148575        -2.725152        -1.612365
 H         4.278964         0.134319        -0.835136
 H         4.019437        -0.282617        -2.493120
 H         1.593356         0.313664        -2.773290
