19
Iteration:   923charge 0 multiplicity 1
 C        -0.036267         0.078022        -0.003914
 C         1.521614        -0.013953        -0.065827
 O         1.938348         1.323425         0.200397
 C         2.044942        -0.992179         1.154952
 C         2.901184        -1.896059         0.534822
 C         3.048308        -1.788232        -0.917673
 C         3.732527        -0.457059        -1.244298
 C         2.240483        -0.592094        -1.306291
 O         1.573891        -0.595381        -2.718312
 H        -0.349380         0.889527         0.672958
 H        -0.717633         0.027261        -0.909808
 H        -0.359312        -0.726541         0.699587
 H         2.880579         1.313535         0.621661
 H         2.009926        -0.880153         2.235612
 H         3.494148        -2.594691         1.102619
 H         3.073972        -2.713804        -1.484580
 H         4.268266        -0.120159        -0.362479
 H         4.188048        -0.312984        -2.255109
 H         0.998294         0.211427        -2.655143
