19
Iteration:  2804charge 0 multiplicity 1
 C         0.137449        -0.217446        -0.069931
 C         1.586390         0.082032         0.106505
 O         1.818840         1.489945         0.406026
 C         2.290726        -0.908571         1.104547
 C         2.827628        -1.954602         0.454405
 C         2.888867        -1.791603        -1.000058
 C         3.732098        -0.536369        -1.559647
 C         2.237609        -0.443354        -1.252885
 O         1.461582        -0.632959        -2.474818
 H        -0.277894         0.582994        -0.845058
 H         0.147783        -1.170086        -0.582576
 H        -0.562939        -0.337421         0.800608
 H         2.773188         1.705405         0.401237
 H         2.089714        -0.720456         2.178040
 H         3.327938        -2.744082         1.040188
 H         2.789441        -2.574293        -1.690916
 H         4.413361        -0.076447        -0.904513
 H         4.148922        -0.619328        -2.632599
 H         1.362199         0.291589        -2.833111
