19
Iteration:  2546
 C         0.042893        -0.133482         0.140222
 C         1.546475         0.081710        -0.068101
 O         1.828617         1.445881         0.346258
 C         2.245498        -0.844041         0.989113
 C         2.910167        -1.931020         0.513067
 C         2.919077        -1.850397        -0.992342
 C         3.771014        -0.623854        -1.372063
 C         2.215823        -0.575397        -1.373079
 O         1.507632        -0.559958        -2.583145
 H        -0.489851         0.843253        -0.129477
 H        -0.333325        -0.977530        -0.331564
 H        -0.228659        -0.229294         1.208823
 H         2.756048         1.501397         0.426362
 H         1.910353        -0.623137         2.071020
 H         3.581636        -2.484260         1.258825
 H         2.689274        -2.719789        -1.613084
 H         4.342619        -0.015662        -0.634901
 H         4.176938        -0.492404        -2.309718
 H         1.514205         0.345847        -2.988808
