19
Iteration:   190
 C         0.123409        -0.156111        -0.127946
 C         1.604726        -0.010790         0.047322
 O         1.942632         1.373114         0.175123
 C         2.131458        -0.906109         1.160628
 C         2.798744        -1.920068         0.567095
 C         2.985677        -1.790741        -0.913856
 C         3.756356        -0.532995        -1.398523
 C         2.222587        -0.566669        -1.338370
 O         1.435625        -0.451053        -2.476637
 H        -0.386313        -0.644062         0.696292
 H        -0.385047         0.787582        -0.365613
 H        -0.145097        -0.663692        -1.070611
 H         1.459053         1.788693         0.878341
 H         2.009602        -0.956104         2.257564
 H         3.372547        -2.636679         1.148667
 H         3.083424        -2.718553        -1.440105
 H         4.242158         0.097467        -0.628288
 H         4.368222        -0.502245        -2.299870
 H         1.967388         0.105832        -3.094071
