19
Iteration:    49charge 0 multiplicity 1
 C         0.057414        -0.064430         0.013891
 C         1.544029        -0.046642         0.013804
 O         1.918520         1.334212         0.402554
 C         2.113856        -0.927015         1.051330
 C         2.842241        -1.947172         0.474852
 C         3.089108        -1.768630        -0.983507
 C         3.636996        -0.439032        -1.443127
 C         2.222942        -0.552515        -1.258357
 O         1.537295        -0.503226        -2.526059
 H        -0.173426         0.847626         0.630194
 H        -0.442283         0.009928        -0.980523
 H        -0.398044        -0.961647         0.456625
 H         2.284079         1.800276        -0.433204
 H         1.833822        -0.855486         2.144519
 H         3.446836        -2.616090         1.152689
 H         2.937373        -2.613619        -1.692624
 H         4.257542         0.142788        -0.765113
 H         3.860885        -0.350105        -2.550398
 H         2.134752        -0.944748        -3.186593
