19
Iteration:  2662charge 0 multiplicity 1
 C         0.088383        -0.075579         0.027000
 C         1.574168         0.037188         0.075299
 O         1.851547         1.471420         0.482839
 C         2.178466        -0.934605         1.080439
 C         2.948583        -1.885580         0.542487
 C         2.904859        -1.777875        -1.048853
 C         3.644691        -0.527159        -1.649324
 C         2.234564        -0.548250        -1.305066
 O         1.556845        -0.659171        -2.573789
 H        -0.220533         0.158720        -1.069607
 H        -0.319508        -1.136378         0.264587
 H        -0.580696         0.554094         0.588620
 H         2.642458         1.321302         0.957615
 H         1.833509        -0.701167         2.127731
 H         3.567868        -2.671071         1.090007
 H         2.614325        -2.744666        -1.453456
 H         4.437471        -0.075370        -0.949897
 H         3.910799        -0.597547        -2.650989
 H         1.808688         0.248344        -2.895268
