19
Iteration:  1947charge 0 multiplicity 1
 C         0.041254        -0.002639         0.231325
 C         1.542470        -0.022942        -0.054626
 O         1.837634         1.359455         0.272196
 C         2.121583        -0.961272         1.055106
 C         2.907282        -1.956099         0.477346
 C         3.009592        -1.751674        -0.944904
 C         3.817313        -0.521158        -1.387584
 C         2.220510        -0.553853        -1.365538
 O         1.454300        -0.531704        -2.573049
 H        -0.458048         0.769784        -0.299557
 H        -0.332919        -1.061108         0.049707
 H        -0.094737         0.381001         1.224410
 H         2.599852         1.660492        -0.341503
 H         2.029418        -0.729026         2.127897
 H         3.194121        -2.900120         1.004583
 H         3.046414        -2.633660        -1.641576
 H         4.446218        -0.229316        -0.527441
 H         4.236755        -0.502107        -2.417690
 H         1.847688         0.042721        -3.283081
