19
Iteration:  4317
 C        -0.075919         0.065515        -0.113955
 C         1.536703        -0.052521         0.006380
 O         2.033521         1.218227         0.440703
 C         2.088190        -1.119082         1.006318
 C         2.992718        -1.907181         0.517693
 C         3.202476        -1.676334        -1.000236
 C         3.699326        -0.268159        -1.476924
 C         2.234518        -0.556760        -1.385024
 O         1.321397        -0.649747        -2.415521
 H        -0.665622        -0.864865        -0.380679
 H        -0.470565         0.310725         1.009573
 H        -0.273490         0.986544        -0.756806
 H         2.934356         1.267966         0.333930
 H         1.788271        -1.055901         2.039782
 H         3.547911        -2.639476         1.053024
 H         3.459573        -2.429676        -1.671484
 H         4.080969         0.534697        -0.809919
 H         4.307861        -0.216259        -2.373541
 H         0.591113        -0.019570        -2.279262
