19
Iteration:  2832charge 0 multiplicity 1
 C         0.095641        -0.146310        -0.117473
 C         1.575525        -0.031525        -0.039932
 O         1.888774         1.337665         0.374817
 C         2.167367        -0.929987         1.053992
 C         2.963921        -1.875327         0.568483
 C         3.011831        -1.804406        -0.940271
 C         3.724508        -0.530949        -1.542412
 C         2.274362        -0.411922        -1.307090
 O         1.313093        -0.521011        -2.422567
 H        -0.400221         0.181798        -0.951278
 H        -0.214995        -1.244109        -0.005546
 H        -0.351112         0.406787         0.713905
 H         2.752392         1.382765         0.712315
 H         1.809623        -0.751109         2.083370
 H         3.557402        -2.560520         1.184564
 H         3.006677        -2.693555        -1.595378
 H         4.346571         0.050023        -0.828406
 H         4.200338        -0.607787        -2.537586
 H         1.412775         0.343256        -2.896048
