19
Iteration:  4051
 C        -0.072315         0.122468        -0.026463
 C         1.539966        -0.055026         0.083208
 O         2.038509         1.246150         0.468689
 C         2.099901        -1.096264         1.077753
 C         2.990321        -1.931231         0.528312
 C         3.159362        -1.623955        -0.963071
 C         3.647702        -0.227402        -1.462739
 C         2.166689        -0.535042        -1.378210
 O         1.416869        -0.812505        -2.580316
 H        -0.257293         0.453713        -1.021487
 H        -0.768681        -0.752103         0.251244
 H        -0.427351         0.975950         0.572438
 H         2.892283         1.381113         0.020239
 H         1.617401        -1.183866         2.033095
 H         3.637443        -2.678041         0.912106
 H         3.489681        -2.376307        -1.633460
 H         4.038127         0.483998        -0.812987
 H         3.902875        -0.290481        -2.456486
 H         1.325607        -0.002243        -3.157349
