19
Iteration:  3359charge 0 multiplicity 1
 C         0.062631        -0.115516         0.197685
 C         1.516156        -0.071882         0.035907
 O         1.896080         1.307982         0.126835
 C         2.168666        -0.955335         1.043742
 C         2.974153        -1.926741         0.440022
 C         3.099991        -1.788509        -1.028078
 C         3.713280        -0.402591        -1.313382
 C         2.208464        -0.550669        -1.353165
 O         1.443967        -0.488233        -2.510989
 H        -0.380414         0.559875        -0.689009
 H        -0.592824        -0.877478         0.105841
 H        -0.195613         0.199159         1.218934
 H         1.274245         1.842108         0.676956
 H         1.925324        -0.889553         2.080821
 H         3.490498        -2.762443         1.046007
 H         3.222165        -2.675043        -1.711762
 H         4.027790         0.126271        -0.409495
 H         4.178818        -0.405083        -2.301403
 H         1.807975         0.303617        -2.937171
