19
Iteration:   617
 C         0.014549         0.017353        -0.002170
 C         1.517358        -0.052002        -0.051049
 O         1.972519         1.319607         0.179382
 C         2.072216        -0.995044         1.035791
 C         2.910131        -1.938953         0.608347
 C         3.061531        -1.803942        -0.898629
 C         3.658695        -0.414585        -1.278189
 C         2.212348        -0.598466        -1.314897
 O         1.603827        -0.471497        -2.659766
 H        -0.178496         0.516704         0.952780
 H        -0.384994         0.555651        -0.870830
 H        -0.293554        -1.003166         0.033140
 H         1.669071         1.583862         1.007804
 H         1.968997        -0.874970         2.072591
 H         3.392993        -2.619304         1.274413
 H         3.402828        -2.619167        -1.530928
 H         3.932288         0.304650        -0.450286
 H         4.304539        -0.265177        -2.182150
 H         0.726728        -0.912936        -2.610555
