19
Iteration:   688charge 0 multiplicity 1
 C         0.084964        -0.033870        -0.167078
 C         1.505738         0.003032         0.018108
 O         1.780891         1.326761         0.360652
 C         2.121210        -0.906019         1.061201
 C         2.960462        -1.833420         0.625602
 C         2.999520        -1.812005        -0.870186
 C         3.802777        -0.602847        -1.428143
 C         2.238243        -0.573684        -1.359118
 O         1.463503        -0.423500        -2.521516
 H        -0.354198        -0.359665         0.808234
 H        -0.273560         0.980916        -0.391236
 H        -0.169367        -0.830541        -1.001070
 H         2.625012         1.498376         0.034146
 H         1.807702        -0.801239         2.134725
 H         3.299396        -2.663668         1.213276
 H         3.204024        -2.795774        -1.251860
 H         4.387251         0.021607        -0.703607
 H         4.269886        -0.673352        -2.348268
 H         1.842727        -0.905579        -3.262769
