19
Iteration:  3252
 C         0.094491        -0.235697        -0.091783
 C         1.555569        -0.012891         0.140129
 O         1.832129         1.401306         0.234294
 C         2.259150        -0.889960         1.098406
 C         3.016469        -1.865210         0.496775
 C         2.902483        -1.793772        -0.966947
 C         3.672337        -0.636023        -1.558968
 C         2.247218        -0.485363        -1.244540
 O         1.482391        -0.431734        -2.423395
 H        -0.185912         0.315150        -1.082232
 H        -0.111928        -1.318589        -0.246269
 H        -0.589440         0.137202         0.744907
 H         1.114786         1.773208         0.764551
 H         2.282905        -0.758918         2.187911
 H         3.528681        -2.557377         1.245151
 H         2.641926        -2.734571        -1.420014
 H         4.355181        -0.031066        -0.854786
 H         4.065649        -0.608693        -2.562252
 H         2.009213         0.109937        -3.010020
