19
Iteration:  2629
 C        -0.018651         0.018974        -0.042620
 C         1.526443        -0.092820         0.001060
 O         1.958384         1.303072         0.349042
 C         2.135528        -0.938158         1.047314
 C         3.026220        -1.848789         0.540144
 C         3.040056        -1.818560        -0.946127
 C         3.753652        -0.465215        -1.461146
 C         2.176325        -0.594628        -1.354803
 O         1.344442        -0.521368        -2.473726
 H        -0.359651         0.429847        -1.037992
 H        -0.466100        -1.072300        -0.055101
 H        -0.376373         0.541817         0.842586
 H         2.922738         1.246362         0.351974
 H         1.869363        -0.531348         2.050444
 H         3.684673        -2.517916         1.169361
 H         3.068880        -2.779938        -1.548133
 H         4.381923         0.045394        -0.632492
 H         4.276814        -0.487949        -2.379453
 H         1.583049         0.292860        -2.953257
