19
Iteration:   345
 C        -0.030306        -0.083982        -0.198152
 C         1.508357        -0.066261         0.057597
 O         1.919506         1.285902         0.156459
 C         2.168485        -0.970867         1.125300
 C         2.987947        -1.893847         0.573618
 C         3.086544        -1.839394        -0.942984
 C         3.627138        -0.526258        -1.324122
 C         2.152926        -0.525876        -1.268325
 O         1.514938        -0.331733        -2.447349
 H        -0.674531         0.752952         0.107538
 H        -0.320127        -0.028560        -1.243104
 H        -0.534721        -0.989936         0.319269
 H         2.704841         1.505572         0.800379
 H         1.870935        -1.072623         2.179928
 H         3.659585        -2.507703         1.173459
 H         3.093480        -2.734314        -1.616838
 H         4.136946         0.105942        -0.600565
 H         4.004054        -0.312607        -2.418443
 H         2.205776        -0.296057        -3.104686
