19
Iteration:  2922charge 0 multiplicity 1
 C         0.036444        -0.190975         0.041272
 C         1.663040         0.052703        -0.005752
 O         1.887651         1.471254         0.328306
 C         2.168052        -0.923743         0.992967
 C         2.803651        -1.994360         0.453525
 C         3.078603        -1.743490        -0.929739
 C         3.782209        -0.380311        -1.447231
 C         2.271486        -0.556472        -1.274598
 O         1.391052        -0.676892        -2.472081
 H        -0.497100         0.653674        -0.499967
 H        -0.058651        -1.157478        -0.382056
 H        -0.233319        -0.203040         1.067314
 H         2.428200         1.857852        -0.305582
 H         1.750602        -0.853394         2.018828
 H         2.939172        -2.952711         0.964865
 H         3.057804        -2.566889        -1.637307
 H         4.275491         0.223275        -0.616266
 H         4.341221        -0.263963        -2.388020
 H         1.011584         0.198236        -2.666367
