19
Iteration:   284charge 0 multiplicity 1
 C        -0.074820        -0.118146        -0.007408
 C         1.532247        -0.042309         0.107106
 O         1.881014         1.516503         0.384507
 C         2.071958        -0.971995         1.061411
 C         2.803232        -1.851476         0.414789
 C         2.917479        -1.780930        -0.983353
 C         3.812775        -0.451115        -1.366510
 C         2.265176        -0.615346        -1.302796
 O         1.712153        -0.627746        -2.579241
 H        -0.253385         0.937740         0.384262
 H        -0.388868        -0.302806        -1.070393
 H        -0.486968        -0.903254         0.488134
 H         2.686825         1.504473        -0.245102
 H         2.156750        -0.999717         2.176221
 H         3.193851        -2.734116         0.945517
 H         3.076931        -2.478121        -1.777413
 H         4.471492        -0.060602        -0.658738
 H         4.249080        -0.406778        -2.348996
 H         0.983070         0.008451        -2.634952
