19
Iteration:  2679
 C         0.063794        -0.135396        -0.023567
 C         1.629979         0.089636         0.043829
 O         1.817174         1.494184         0.430156
 C         2.195002        -0.907574         0.997856
 C         2.874537        -1.901502         0.442652
 C         3.002233        -1.824201        -1.005056
 C         3.753514        -0.626515        -1.499855
 C         2.237315        -0.501777        -1.316792
 O         1.447710        -0.608495        -2.468080
 H        -0.481799         0.082181        -0.897364
 H        -0.113959        -1.169006         0.328442
 H        -0.326763         0.410882         0.874103
 H         2.698185         1.648433         0.811143
 H         2.078698        -0.857214         2.056647
 H         3.168935        -2.746700         1.049546
 H         2.927411        -2.711190        -1.709601
 H         4.460291        -0.083620        -0.866073
 H         4.080471        -0.507566        -2.571690
 H         1.304279         0.261921        -2.919505
