19
Iteration:   665
 C        -0.002708        -0.173165        -0.178089
 C         1.587120         0.077738        -0.065567
 O         1.891918         1.470215         0.275871
 C         2.031515        -0.940505         1.043858
 C         2.769467        -1.941843         0.563222
 C         3.086741        -1.784120        -0.927048
 C         3.816280        -0.510870        -1.389640
 C         2.380214        -0.492141        -1.309696
 O         1.421500        -0.512686        -2.371767
 H        -0.334872        -0.642208         0.800169
 H        -0.509670         0.806584        -0.347864
 H        -0.140760        -0.916710        -1.032366
 H         2.789241         1.475748         0.805151
 H         1.837118        -0.641347         2.145311
 H         3.356324        -2.749524         1.062590
 H         2.984981        -2.672366        -1.597668
 H         4.530528        -0.068844        -0.680264
 H         4.184918        -0.564971        -2.373708
 H         1.373122        -1.344110        -2.872927
