19
Iteration:  1178charge 0 multiplicity 1
 C        -0.006217        -0.027791        -0.129560
 C         1.470020         0.031674         0.028115
 O         1.892862         1.402418         0.303844
 C         2.064785        -1.095262         1.066844
 C         3.040528        -1.898954         0.581564
 C         3.017933        -1.796534        -0.946669
 C         3.776221        -0.471261        -1.391529
 C         2.186700        -0.635058        -1.274661
 O         1.507170        -0.505906        -2.541325
 H        -0.318937         0.633365        -0.942773
 H        -0.468496        -1.023527        -0.105908
 H        -0.519579         0.487046         0.691895
 H         2.810376         1.450404         0.456380
 H         1.737662        -1.103068         2.090918
 H         3.502969        -2.661476         1.157042
 H         3.160674        -2.792341        -1.366103
 H         4.518283         0.029159        -0.798046
 H         4.057336        -0.259492        -2.496260
 H         1.629750         0.419332        -2.879534
