19
Iteration:  4214charge 0 multiplicity 1
 C        -0.053977        -0.277495        -0.032317
 C         1.597369        -0.065833         0.111278
 O         1.793460         1.402761         0.171016
 C         2.251089        -0.989260         1.031176
 C         2.957426        -1.923482         0.461546
 C         2.997645        -1.787659        -1.006360
 C         3.771176        -0.644889        -1.429565
 C         2.214038        -0.457957        -1.233324
 O         1.472693        -0.278519        -2.391882
 H        -0.258124        -1.208456         0.527976
 H        -0.432965         0.648927         0.359226
 H        -0.161670        -0.360794        -1.148469
 H         2.670795         1.652594         0.663507
 H         2.215001        -0.628324         2.098778
 H         3.537207        -2.702051         0.956396
 H         2.851272        -2.592643        -1.789987
 H         4.566857        -0.262941        -0.799229
 H         3.837716        -0.644040        -2.521276
 H         1.207018         0.681676        -2.425662
