19
Iteration:   250charge 0 multiplicity 1
 C         0.047186        -0.056608        -0.068002
 C         1.541608        -0.071931        -0.079765
 O         1.822374         1.310202         0.323428
 C         2.130997        -0.953386         1.013895
 C         2.916221        -1.926914         0.592797
 C         2.977917        -1.768783        -0.890413
 C         3.768986        -0.482024        -1.283026
 C         2.259122        -0.574382        -1.331611
 O         1.513877        -0.482740        -2.593725
 H        -0.268962         0.787254         0.596633
 H        -0.412674         0.205144        -1.025655
 H        -0.339510        -0.939020         0.430460
 H         2.680821         1.572704         0.044799
 H         2.044742        -0.629896         2.042834
 H         3.393427        -2.655575         1.257087
 H         2.997534        -2.648891        -1.573712
 H         4.196099        -0.016416        -0.461834
 H         4.158537        -0.556965        -2.321416
 H         1.575346         0.452179        -2.896268
