19
Iteration:  2901
 C         0.006431        -0.087202         0.165162
 C         1.481453        -0.017389         0.045334
 O         1.941868         1.403807         0.228250
 C         2.152519        -0.969419         1.058754
 C         2.898122        -1.935664         0.421986
 C         3.124139        -1.724275        -1.032366
 C         3.689734        -0.386573        -1.263047
 C         2.206811        -0.565013        -1.377430
 O         1.476453        -0.658732        -2.539678
 H        -0.553853         0.690308        -0.468720
 H        -0.311243        -1.064220        -0.077735
 H        -0.245524         0.222808         1.178667
 H         2.668488         1.456969        -0.473153
 H         1.903601        -0.865484         2.123646
 H         3.344079        -2.803221         0.933854
 H         3.360284        -2.538975        -1.718828
 H         4.201013         0.118273        -0.399162
 H         4.243870        -0.281396        -2.197988
 H         1.098927         0.173762        -2.923560
