19
Iteration:  1238
 C         0.022766        -0.144375         0.068476
 C         1.583804         0.054087         0.036273
 O         1.915063         1.482884         0.204083
 C         2.050646        -0.996085         1.067092
 C         2.784836        -2.008946         0.514389
 C         3.105892        -1.738336        -0.967046
 C         3.773094        -0.505759        -1.292488
 C         2.153088        -0.548813        -1.335812
 O         1.584068        -0.535359        -2.565812
 H        -0.370738         0.530685        -0.688638
 H        -0.157839        -1.157914        -0.239429
 H        -0.184793         0.065420         1.143455
 H         2.552510         1.581371        -0.505949
 H         1.715319        -1.080782         2.062833
 H         3.096006        -2.881149         1.050307
 H         3.313264        -2.508260        -1.710378
 H         4.069509         0.041752        -0.369551
 H         4.416559        -0.501112        -2.113599
 H         0.990961         0.220540        -2.717412
