19
Iteration:  3542charge 0 multiplicity 1
 C         0.112758        -0.236421        -0.073629
 C         1.632344        -0.005556         0.039023
 O         1.807774         1.427135         0.380130
 C         2.223157        -0.873388         1.097408
 C         2.971340        -1.882954         0.520925
 C         2.941064        -1.821455        -0.965550
 C         3.697021        -0.596156        -1.514001
 C         2.259151        -0.509129        -1.313963
 O         1.469576        -0.449335        -2.449762
 H        -0.047225         0.177820        -1.119206
 H        -0.302156        -1.303686        -0.050036
 H        -0.488091         0.233782         0.746820
 H         0.917170         1.726077         0.134325
 H         1.927550        -0.648028         2.134770
 H         3.522624        -2.665284         1.075889
 H         2.851972        -2.776021        -1.600141
 H         4.501633        -0.182775        -0.957256
 H         4.014918        -0.635937        -2.572868
 H         1.740709         0.342932        -2.934353
