19
Iteration:  2605charge 0 multiplicity 1
 C         0.083116         0.020896        -0.059935
 C         1.573960        -0.042161         0.002104
 O         1.971425         1.350911         0.120772
 C         2.074316        -1.066526         1.068698
 C         2.965348        -1.933760         0.481293
 C         3.134917        -1.779134        -0.943990
 C         3.650158        -0.414603        -1.332252
 C         2.164346        -0.582131        -1.268583
 O         1.363696        -0.528980        -2.346116
 H        -0.319422         0.763545        -0.730783
 H        -0.368064        -0.990361        -0.505696
 H        -0.223223         0.140554         1.020011
 H         2.926485         1.326457        -0.288373
 H         1.858053        -0.880316         2.095080
 H         3.422276        -2.734180         1.035357
 H         3.274202        -2.665952        -1.615774
 H         4.253701         0.178320        -0.643454
 H         3.972255        -0.331688        -2.426028
 H         1.197906         0.415700        -2.483051
