19
Iteration:   655charge 0 multiplicity 1
 C         0.052852        -0.130898        -0.149714
 C         1.509565         0.085398         0.048160
 O         1.931158         1.451285         0.195671
 C         2.035207        -0.954055         1.053250
 C         2.743948        -1.987634         0.492339
 C         3.030319        -1.799014        -0.898907
 C         3.846969        -0.453282        -1.417504
 C         2.301606        -0.455299        -1.313948
 O         1.487074        -0.531165        -2.392364
 H        -0.301004        -0.578278         0.835104
 H        -0.714886         0.607315        -0.449031
 H        -0.107706        -0.975584        -0.950370
 H         2.575289         1.357372         0.966169
 H         2.122640        -0.726734         2.185298
 H         3.154118        -2.745395         1.198320
 H         3.268984        -2.660746        -1.540306
 H         4.458773         0.125587        -0.678632
 H         4.240543        -0.499687        -2.375441
 H         1.475978        -1.463349        -2.595882
