19
Iteration:   847
 C        -0.019555        -0.022020        -0.208984
 C         1.513830        -0.005130        -0.095984
 O         1.894735         1.294394         0.315345
 C         2.116663        -0.869909         1.098454
 C         2.896346        -1.839310         0.652241
 C         3.014071        -1.854538        -0.873186
 C         3.752492        -0.662408        -1.432061
 C         2.253983        -0.587225        -1.248755
 O         1.560167        -0.360335        -2.472473
 H        -0.376521        -0.330958         0.770304
 H        -0.478662         0.931679        -0.502056
 H        -0.353491        -0.704201        -0.982465
 H         2.674523         1.539593        -0.146161
 H         2.009205        -0.469184         2.108256
 H         3.522173        -2.492346         1.231281
 H         3.145056        -2.774065        -1.422406
 H         4.358538         0.023270        -0.769334
 H         3.889680        -0.605666        -2.480273
 H         1.112387        -1.162035        -2.770025
