19
Iteration:  2105charge 0 multiplicity 1
 C        -0.022866        -0.063985         0.100657
 C         1.539504        -0.075612        -0.053983
 O         1.982926         1.322283         0.096642
 C         2.176536        -0.917881         0.995698
 C         2.831788        -1.983562         0.553290
 C         3.107869        -1.788637        -0.992348
 C         3.707770        -0.472330        -1.308449
 C         2.208307        -0.600214        -1.339774
 O         1.437845        -0.413667        -2.467407
 H        -0.664621         0.679231        -0.445619
 H        -0.233400        -1.101893        -0.044996
 H        -0.144913         0.143563         1.246387
 H         3.014515         1.266301         0.164774
 H         1.861718        -0.698797         2.037041
 H         3.622873        -2.505543         1.033091
 H         3.271344        -2.774102        -1.457645
 H         4.213115         0.158188        -0.523476
 H         4.217578        -0.140491        -2.215869
 H         0.635284         0.068472        -2.120492
