19
Iteration:  4458charge 0 multiplicity 1
 C         0.039177        -0.305229         0.073194
 C         1.552096        -0.082404         0.004930
 O         1.767894         1.395971         0.285110
 C         2.262333        -0.965983         1.045632
 C         2.937441        -1.904634         0.520691
 C         2.909143        -1.842378        -1.059375
 C         3.816059        -0.610374        -1.414513
 C         2.275617        -0.560271        -1.376365
 O         1.478598        -0.182603        -2.441203
 H        -0.054898        -1.333679         0.323784
 H        -0.367692         0.207759         0.952302
 H        -0.431664         0.071333        -0.826110
 H         2.393459         1.541584        -0.406402
 H         2.263945        -0.673155         2.175339
 H         3.760228        -2.540244         1.035151
 H         2.709288        -2.698003        -1.810374
 H         4.326689        -0.097783        -0.621892
 H         4.165861        -0.361436        -2.430915
 H         0.899548         0.538774        -2.207965
