19
Iteration:   616
 C         0.000087         0.027778         0.005730
 C         1.514285        -0.048143        -0.043936
 O         1.973840         1.310173         0.179277
 C         2.066310        -0.994093         1.023704
 C         2.916736        -1.939224         0.606366
 C         3.061954        -1.799546        -0.900911
 C         3.664183        -0.422362        -1.275482
 C         2.220260        -0.611676        -1.317995
 O         1.603887        -0.469102        -2.654471
 H        -0.177205         0.543502         0.928006
 H        -0.381457         0.524203        -0.882456
 H        -0.279677        -1.024138         0.037183
 H         1.639370         1.603104         1.004145
 H         1.982527        -0.858495         2.068341
 H         3.419665        -2.584126         1.280883
 H         3.420042        -2.575434        -1.538450
 H         3.939698         0.343226        -0.461468
 H         4.297529        -0.300067        -2.159181
 H         0.693869        -0.874488        -2.642843
