19
Iteration:  2665charge 0 multiplicity 1
 C         0.096595        -0.108807         0.048432
 C         1.559576         0.065956         0.047411
 O         1.840806         1.499225         0.484339
 C         2.151006        -0.933714         1.072126
 C         2.958920        -1.879913         0.523897
 C         2.920105        -1.813247        -1.046064
 C         3.665370        -0.531316        -1.630534
 C         2.245315        -0.559066        -1.308085
 O         1.549569        -0.652644        -2.550140
 H        -0.147138         0.136742        -1.044648
 H        -0.230630        -1.065648         0.183371
 H        -0.538394         0.610996         0.587015
 H         2.670832         1.315857         0.963691
 H         1.931310        -0.697008         2.170353
 H         3.403036        -2.751352         1.015433
 H         2.640041        -2.706385        -1.509136
 H         4.352859        -0.161739        -0.936121
 H         3.914707        -0.533295        -2.735787
 H         1.707624         0.238012        -2.907675
