19
Iteration:   647charge 0 multiplicity 1
 C         0.043221        -0.126408        -0.085879
 C         1.548832         0.041152         0.045600
 O         1.958071         1.408158         0.162611
 C         2.100085        -0.936133         1.058429
 C         2.735641        -1.968640         0.507227
 C         3.006536        -1.727388        -0.924304
 C         3.807346        -0.434422        -1.394355
 C         2.229190        -0.512939        -1.217346
 O         1.543308        -0.537569        -2.491926
 H        -0.521076        -0.401029         0.779099
 H        -0.451276         0.736484        -0.536591
 H        -0.088841        -1.053455        -0.732503
 H         2.414317         1.612412         1.057177
 H         1.936326        -0.992158         2.114265
 H         2.965274        -2.800972         1.115596
 H         3.255710        -2.486906        -1.606250
 H         4.212624         0.309228        -0.660501
 H         4.246922        -0.556782        -2.364340
 H         1.474125        -1.497677        -2.559201
