19
Iteration:  2911charge 0 multiplicity 1
 C        -0.003677        -0.145914         0.165486
 C         1.598409         0.079249         0.037320
 O         1.924815         1.427067         0.276406
 C         2.191083        -0.915052         1.000102
 C         2.831853        -1.945555         0.473116
 C         3.145829        -1.776081        -1.049384
 C         3.731547        -0.400223        -1.322789
 C         2.226118        -0.536503        -1.378924
 O         1.437318        -0.691279        -2.499396
 H        -0.463017         0.588649        -0.566437
 H        -0.312718        -1.065742        -0.295010
 H        -0.541794        -0.084965         1.080657
 H         2.538832         1.767175        -0.393770
 H         1.663333        -1.192610         1.928692
 H         2.986985        -2.843429         1.076889
 H         3.361045        -2.558271        -1.751005
 H         4.109096         0.152198        -0.418606
 H         4.254604        -0.278256        -2.305057
 H         1.075327         0.229843        -2.669388
