19
Iteration:  3264charge 0 multiplicity 1
 C         0.133064        -0.307327        -0.196200
 C         1.624300         0.059031         0.046040
 O         1.823668         1.453926         0.230695
 C         2.308416        -0.860550         1.139291
 C         2.913844        -1.868709         0.547577
 C         2.920227        -1.869156        -0.959678
 C         3.760123        -0.590804        -1.531731
 C         2.217765        -0.582150        -1.220718
 O         1.381147        -0.378937        -2.355079
 H        -0.321347         0.118041        -1.110633
 H         0.035120        -1.469725        -0.220372
 H        -0.461283         0.017634         0.726190
 H         1.255439         1.887091         0.972299
 H         2.128114        -0.717462         2.212989
 H         3.510792        -2.786151         0.884315
 H         2.881387        -2.683053        -1.746073
 H         4.523358        -0.164973        -0.791517
 H         3.934897        -0.592603        -2.623417
 H         1.816566         0.244699        -2.986292
