19
Iteration:  3643charge 0 multiplicity 1
 C         0.058209        -0.232277         0.005212
 C         1.598927        -0.048130         0.004019
 O         1.852327         1.396032         0.114738
 C         2.144088        -0.935256         1.057405
 C         2.893542        -1.954634         0.499293
 C         3.037019        -1.713407        -0.986572
 C         3.818427        -0.465638        -1.345438
 C         2.222294        -0.535107        -1.233882
 O         1.462810        -0.469463        -2.406598
 H        -0.361525         0.824430        -0.478423
 H        -0.339116        -1.116760        -0.460473
 H        -0.275746        -0.348120         1.127035
 H         2.488309         1.612319        -0.531803
 H         1.732099        -0.862874         2.081790
 H         3.173172        -2.859924         1.063693
 H         2.966254        -2.517041        -1.688864
 H         4.579310        -0.212722        -0.549734
 H         3.913123        -0.259024        -2.444103
 H         0.929972         0.337910        -2.233998
