19
Iteration:  2616charge 0 multiplicity 1
 C         0.048173        -0.002845        -0.072509
 C         1.561015        -0.020018        -0.060919
 O         1.975295         1.305933         0.231091
 C         2.096700        -0.985842         1.016871
 C         2.951724        -1.874150         0.555272
 C         3.095286        -1.784243        -0.991814
 C         3.695210        -0.466786        -1.382671
 C         2.214829        -0.675744        -1.262912
 O         1.327041        -0.507648        -2.374686
 H        -0.309251         0.750274        -0.760338
 H        -0.440502        -1.091194        -0.177273
 H        -0.332918         0.425794         0.902067
 H         2.931826         1.473402         0.010923
 H         1.922626        -1.129560         2.044098
 H         3.691620        -2.339140         1.177144
 H         3.229519        -2.657613        -1.701792
 H         4.110845         0.099875        -0.538844
 H         4.075357        -0.220249        -2.414048
 H         1.435543         0.431327        -2.642304
