19
Iteration:  1181
 C        -0.010409        -0.020051        -0.131792
 C         1.482581        -0.001175         0.035600
 O         1.901897         1.397211         0.284278
 C         2.083601        -1.098450         1.066468
 C         2.993059        -1.884188         0.557681
 C         3.024002        -1.801768        -0.925746
 C         3.767751        -0.453741        -1.358368
 C         2.194265        -0.626382        -1.271759
 O         1.494132        -0.502841        -2.542465
 H        -0.307298         0.565509        -1.017317
 H        -0.377983        -1.113298        -0.154283
 H        -0.443849         0.548893         0.637862
 H         2.941839         1.460482         0.319149
 H         1.820191        -1.149814         2.166378
 H         3.488857        -2.721968         1.161816
 H         3.188721        -2.789010        -1.389380
 H         4.544065         0.081697        -0.765735
 H         4.033331        -0.189772        -2.440473
 H         1.465876         0.432125        -2.834306
