19
Iteration:  4124
 C         0.111166        -0.226636         0.126721
 C         1.583081        -0.051350         0.034825
 O         1.668755         1.369270         0.224161
 C         2.297288        -0.890363         1.071528
 C         2.906504        -1.946340         0.474587
 C         2.922202        -1.840197        -1.015732
 C         3.720489        -0.578681        -1.409279
 C         2.224452        -0.458090        -1.298275
 O         1.582400        -0.343630        -2.552385
 H        -0.195101        -0.830111        -0.682086
 H        -0.165273        -0.840107         1.069740
 H        -0.461244         0.625612         0.152716
 H         2.619993         1.609615         0.568321
 H         2.056336        -0.857863         2.094956
 H         3.412068        -2.715021         1.089130
 H         2.926320        -2.704421        -1.662385
 H         4.306947        -0.048140        -0.699567
 H         3.846630        -0.570867        -2.467707
 H         1.562026         0.634410        -2.814125
