19
Iteration:  3144
 C         0.018347        -0.026966        -0.096786
 C         1.587616         0.007605        -0.038250
 O         1.981928         1.284173         0.443606
 C         2.134183        -0.965249         0.971952
 C         3.018291        -1.881493         0.540253
 C         3.149544        -1.764378        -0.944533
 C         3.683049        -0.395810        -1.474324
 C         2.206619        -0.600801        -1.346553
 O         1.293516        -0.618908        -2.378542
 H        -0.346391         0.466267        -0.931528
 H        -0.241164        -1.106381        -0.216510
 H        -0.416132         0.471498         0.822075
 H         1.735725         2.019208        -0.052379
 H         1.767691        -0.784591         1.978773
 H         3.470107        -2.736424         1.050126
 H         3.228816        -2.596265        -1.554473
 H         3.999995         0.433176        -0.747407
 H         4.190326        -0.415405        -2.477527
 H         1.747326        -0.071831        -3.024857
