19
Iteration:   125
 C        -0.039440        -0.140705         0.009818
 C         1.524440        -0.019644         0.052501
 O         1.904901         1.414492         0.186293
 C         2.205703        -0.934147         1.136601
 C         2.870573        -1.933248         0.565545
 C         2.980001        -1.729668        -0.904571
 C         3.741526        -0.539384        -1.412429
 C         2.202537        -0.523809        -1.307454
 O         1.619472        -0.492730        -2.606730
 H        -0.381101        -0.480303         1.002346
 H        -0.430043         0.882539        -0.192179
 H        -0.422900        -0.797155        -0.786322
 H         2.788783         1.271282         0.475075
 H         1.696215        -0.955859         2.129653
 H         3.240386        -2.833477         1.085744
 H         3.038941        -2.681453        -1.431125
 H         4.353134        -0.080045        -0.659637
 H         4.050776        -0.576889        -2.520030
 H         0.972258         0.165074        -2.845366
