19
Iteration:  2164charge 0 multiplicity 1
 C         0.056204        -0.148487        -0.020907
 C         1.570410         0.029163         0.009661
 O         1.795983         1.426757         0.338497
 C         2.284095        -0.877553         1.031044
 C         2.925374        -1.946845         0.528667
 C         2.871788        -1.806967        -0.971170
 C         3.768443        -0.607516        -1.450479
 C         2.175133        -0.512703        -1.298638
 O         1.499049        -0.471864        -2.473081
 H        -0.535205         0.302346        -0.819191
 H        -0.268292        -1.248171        -0.017230
 H        -0.278325         0.148420         0.964195
 H         2.681712         1.672333         0.260933
 H         2.471118        -0.390155         2.026812
 H         3.310640        -2.909704         0.963588
 H         2.851063        -2.672365        -1.600667
 H         4.368383        -0.166760        -0.679302
 H         3.996140        -0.708897        -2.475445
 H         1.970296        -0.039827        -3.187166
