19
Iteration:  4761
 C         0.147187        -0.297954         0.083647
 C         1.681872         0.044435         0.023448
 O         1.617714         1.472636         0.339101
 C         2.290177        -0.909575         0.995353
 C         2.854819        -2.008523         0.433746
 C         2.929975        -1.872210        -0.967003
 C         3.764404        -0.619396        -1.503044
 C         2.253168        -0.564439        -1.359668
 O         1.541974        -0.223726        -2.467072
 H         0.030942        -1.330780         0.501583
 H        -0.262804         0.340839         0.905918
 H        -0.531624        -0.074345        -0.833247
 H         2.482171         1.919197         0.210538
 H         2.235303        -0.862565         2.037260
 H         3.300165        -2.761315         1.006181
 H         2.903922        -2.729288        -1.666801
 H         4.419805        -0.221688        -0.768833
 H         4.218762        -0.952389        -2.424489
 H         0.700049         0.243613        -2.186386
