19
Iteration:  3704
 C        -0.027567         0.060821        -0.147515
 C         1.510872        -0.016880         0.074357
 O         1.945680         1.240549         0.532149
 C         2.086281        -1.011795         1.086698
 C         3.046945        -1.820924         0.494743
 C         3.109813        -1.644862        -0.981245
 C         3.632766        -0.373511        -1.536285
 C         2.136760        -0.557186        -1.310406
 O         1.464188        -0.717175        -2.514627
 H        -0.231552         0.435897        -1.086214
 H        -0.456622        -1.015257        -0.128722
 H        -0.506343         0.668994         0.600443
 H         2.830120         1.306369         0.259525
 H         1.942136        -1.005733         2.215472
 H         3.611846        -2.523165         1.034221
 H         3.084103        -2.551960        -1.573233
 H         4.292138         0.205541        -0.839071
 H         4.126888        -0.420488        -2.444474
 H         1.905826        -0.299637        -3.254281
