19
Iteration:   278charge 0 multiplicity 1
 C        -0.089832        -0.082262        -0.029032
 C         1.498514        -0.040542         0.096749
 O         1.879391         1.520154         0.396666
 C         2.136498        -0.946134         1.109346
 C         2.857425        -1.936643         0.399673
 C         2.942683        -1.794246        -1.000795
 C         3.729443        -0.480528        -1.359320
 C         2.265855        -0.583795        -1.300512
 O         1.738434        -0.617259        -2.587948
 H        -0.383078         0.901020         0.258650
 H        -0.356321        -0.079010        -1.086091
 H        -0.547326        -0.981872         0.575521
 H         2.552166         1.642061        -0.210656
 H         2.089709        -0.936699         2.193339
 H         3.283757        -2.704425         1.030587
 H         3.103216        -2.593045        -1.720749
 H         4.331146         0.018850        -0.490148
 H         4.065701        -0.523795        -2.398827
 H         1.008997        -0.011010        -2.862933
