19
Iteration:  1986charge 0 multiplicity 1
 C        -0.014518        -0.000526         0.083113
 C         1.544062        -0.074512         0.041949
 O         1.975309         1.339559         0.082575
 C         2.225560        -0.898394         1.089372
 C         2.922344        -1.977589         0.481983
 C         3.063063        -1.823799        -0.994669
 C         3.602000        -0.419870        -1.346682
 C         2.152653        -0.685948        -1.247374
 O         1.466670        -0.339545        -2.491476
 H        -0.745077         0.635250        -0.503788
 H        -0.272574        -1.020210        -0.069063
 H        -0.274806        -0.052229         1.237246
 H         2.855567         1.374478         0.330275
 H         1.994602        -0.888226         2.230719
 H         3.274345        -2.924238         0.938044
 H         3.084947        -2.732283        -1.570857
 H         4.381997        -0.018761        -0.612084
 H         3.917427        -0.168819        -2.311475
 H         1.880844        -0.817994        -3.208870
