19
Iteration:  4233
 C         0.015570        -0.167702         0.025720
 C         1.522574        -0.044069        -0.000746
 O         1.864850         1.324460         0.283520
 C         2.224049        -0.996573         1.052981
 C         2.968278        -1.855065         0.496159
 C         2.943155        -1.811772        -1.039365
 C         3.746876        -0.451289        -1.421116
 C         2.214369        -0.537343        -1.325455
 O         1.466748        -0.397999        -2.466690
 H        -0.156089        -0.995019         0.633518
 H        -0.370994         0.810796         0.509558
 H        -0.425808        -0.424319        -0.863119
 H         2.826077         1.120545         0.586904
 H         1.857021        -0.915479         2.116802
 H         3.671873        -2.574468         0.859671
 H         2.814170        -2.754247        -1.582361
 H         4.219463        -0.103640        -0.551137
 H         4.350845        -0.339284        -2.287103
 H         1.398059         0.529097        -2.738320
