19
Iteration:  1151
 C         0.029123        -0.040182        -0.078669
 C         1.495825        -0.038316        -0.032229
 O         1.796228         1.262361         0.438518
 C         2.086933        -0.878261         1.044292
 C         2.871513        -1.825120         0.513412
 C         3.031953        -1.796021        -0.904865
 C         3.811879        -0.577010        -1.498694
 C         2.310020        -0.472720        -1.355964
 O         1.538437        -0.531393        -2.519102
 H        -0.303818         0.877226        -0.582413
 H        -0.586787        -0.917123        -0.356748
 H        -0.363186         0.075327         0.979186
 H         2.436400         1.302951         1.093644
 H         2.076549        -0.665847         2.153263
 H         3.457171        -2.458753         1.259014
 H         2.925300        -2.794046        -1.362833
 H         4.571644         0.109946        -1.070247
 H         3.905483        -0.729230        -2.551576
 H         1.988863        -0.157684        -3.302994
