19
Iteration:  2450
 C         0.087914        -0.161426         0.248225
 C         1.570860        -0.003085         0.018279
 O         1.841983         1.457609         0.144389
 C         2.228400        -0.926235         1.029336
 C         2.862983        -1.951823         0.468934
 C         2.851254        -1.867522        -0.985748
 C         3.650508        -0.528444        -1.354235
 C         2.201662        -0.545262        -1.296454
 O         1.647359        -0.480548        -2.566280
 H        -0.427423         0.390985        -0.619389
 H        -0.085341        -1.230748         0.310618
 H        -0.277012         0.255065         1.259410
 H         2.737357         1.542845        -0.108507
 H         2.256459        -0.543029         2.087496
 H         3.105930        -2.912807         1.025663
 H         2.954185        -2.580142        -1.797687
 H         4.297191         0.083394        -0.669644
 H         3.966425        -0.466242        -2.349906
 H         1.313164         0.441234        -2.717721
