19
Iteration:  2988
 C        -0.011762        -0.158462         0.034473
 C         1.488111        -0.069638         0.060244
 O         1.769111         1.298892         0.242862
 C         2.255911        -0.849053         1.003995
 C         3.053155        -1.836170         0.531639
 C         3.035727        -1.914747        -0.902303
 C         3.671170        -0.650858        -1.441568
 C         2.216585        -0.541847        -1.347799
 O         1.486689        -0.313044        -2.545781
 H        -0.357551         0.436313        -0.890868
 H        -0.393318        -1.093512         0.078027
 H        -0.440768         0.227131         0.947352
 H         2.145596         1.468841         1.204713
 H         2.281008        -0.435763         1.988357
 H         3.997338        -2.226755         0.971514
 H         2.997669        -2.970291        -1.376791
 H         4.389318         0.069138        -0.825954
 H         4.000252        -0.717016        -2.453729
 H         1.886139         0.523596        -2.850801
