19
Iteration:  2697
 C         0.089195        -0.172907         0.042154
 C         1.598007         0.007180        -0.055829
 O         1.812242         1.380073         0.257602
 C         2.277321        -0.893762         1.061012
 C         2.816801        -2.011283         0.504995
 C         2.944292        -1.752939        -0.949827
 C         3.849950        -0.527871        -1.412308
 C         2.281162        -0.485082        -1.358225
 O         1.338774        -0.500599        -2.409216
 H        -0.184875         0.420936        -0.900427
 H        -0.200402        -1.140472        -0.174947
 H        -0.299207         0.357615         0.925864
 H         2.767440         1.473393         0.223429
 H         2.065438        -0.629623         2.129335
 H         3.417801        -2.810006         0.909597
 H         2.903224        -2.457673        -1.715393
 H         4.422177        -0.105778        -0.655113
 H         4.379037        -0.756001        -2.379823
 H         1.136758         0.423937        -2.700883
