19
Iteration:  4123charge 0 multiplicity 1
 C         0.098902        -0.218853         0.128363
 C         1.590970        -0.048348         0.032742
 O         1.673986         1.363655         0.224980
 C         2.289311        -0.898459         1.080445
 C         2.914532        -1.956465         0.472203
 C         2.928350        -1.838686        -1.009895
 C         3.731978        -0.574829        -1.408424
 C         2.216866        -0.454997        -1.307013
 O         1.572580        -0.346268        -2.553997
 H        -0.192015        -0.806412        -0.741833
 H        -0.145686        -0.828119         1.055975
 H        -0.472514         0.660872         0.153406
 H         2.589676         1.621052         0.565825
 H         2.037790        -0.816280         2.116476
 H         3.441987        -2.726947         1.110060
 H         2.951264        -2.727817        -1.670459
 H         4.320025        -0.005796        -0.676763
 H         3.838518        -0.581976        -2.501614
 H         1.544294         0.633344        -2.797712
