19
Iteration:  2761
 C         0.047603        -0.149630         0.213664
 C         1.557518        -0.068293         0.012002
 O         1.799588         1.274902         0.096788
 C         2.195538        -0.857926         1.061603
 C         2.905821        -1.866108         0.536690
 C         2.936205        -1.850955        -1.009261
 C         3.775373        -0.575649        -1.378423
 C         2.218789        -0.533452        -1.365150
 O         1.521792        -0.352123        -2.511470
 H        -0.499403         0.918359         0.229997
 H        -0.585916        -0.753332        -0.441339
 H        -0.239981        -0.492131         1.237436
 H         2.717570         1.316118         0.187177
 H         2.118307        -0.835573         2.168051
 H         3.643585        -2.468726         1.022942
 H         2.970296        -2.702685        -1.601605
 H         4.388594        -0.235886        -0.605070
 H         4.258033        -0.475941        -2.420217
 H         1.552206         0.597424        -2.789716
