19
Iteration:  4781charge 0 multiplicity 1
 C         0.076529        -0.306392         0.042767
 C         1.567099        -0.069655         0.072077
 O         1.768455         1.376909         0.263196
 C         2.294774        -0.903295         1.118787
 C         2.902895        -2.003419         0.547180
 C         2.938090        -1.827793        -1.028118
 C         3.727292        -0.594773        -1.496166
 C         2.274422        -0.427680        -1.259654
 O         1.513842        -0.229843        -2.551173
 H        -0.046567        -1.392353        -0.075511
 H        -0.316593        -0.016575         0.942029
 H        -0.388344         0.291748        -0.774252
 H         2.619164         1.556341         0.000542
 H         2.192283        -0.529541         2.094770
 H         3.357428        -2.831735         1.076059
 H         2.728411        -2.759377        -1.617467
 H         4.552031        -0.135829        -0.885637
 H         3.770780        -0.487174        -2.602603
 H         0.756113         0.364493        -2.296716
