19
Iteration:  3152
 C         0.069291        -0.055007        -0.084671
 C         1.541847         0.030416        -0.043550
 O         2.020904         1.321547         0.383151
 C         2.155006        -0.966554         1.012359
 C         2.971786        -1.913826         0.465088
 C         3.162734        -1.713308        -0.963639
 C         3.698441        -0.369357        -1.398306
 C         2.216704        -0.631481        -1.290629
 O         1.284612        -0.640614        -2.371765
 H        -0.201532         0.516051        -1.028615
 H        -0.239276        -1.017292        -0.243474
 H        -0.456122         0.347297         0.793752
 H         1.604044         1.905880        -0.228102
 H         1.847958        -1.090812         2.072307
 H         3.187583        -2.772729         1.036394
 H         3.258975        -2.637377        -1.509932
 H         3.948699         0.330111        -0.653426
 H         3.877626        -0.209098        -2.491220
 H         1.614590        -0.036509        -3.060917
