19
Iteration:  3715
 C        -0.049603         0.064551        -0.165163
 C         1.476771        -0.046326         0.000043
 O         1.968512         1.320415         0.471046
 C         2.079471        -1.138043         1.060144
 C         3.030919        -1.851021         0.537022
 C         3.096937        -1.663575        -0.951588
 C         3.799726        -0.314886        -1.514946
 C         2.187968        -0.582072        -1.291204
 O         1.351314        -0.722884        -2.467024
 H        -0.317805         0.460874        -1.070491
 H        -0.590304        -0.963946        -0.043323
 H        -0.457769         0.690936         0.615394
 H         2.929800         1.263974         0.606120
 H         1.830768        -0.858057         2.134165
 H         3.774802        -2.449408         0.964073
 H         3.225862        -2.456736        -1.669223
 H         4.371914         0.357244        -0.821545
 H         3.931348        -0.319969        -2.553059
 H         1.823972        -0.111094        -3.092198
