19
Iteration:  2592charge 0 multiplicity 1
 C         0.026154        -0.019121         0.010732
 C         1.579612        -0.084723         0.092181
 O         1.989920         1.388910         0.043884
 C         2.146158        -1.046694         1.099845
 C         2.888144        -2.059530         0.564011
 C         3.050887        -1.700145        -0.939877
 C         3.707130        -0.320446        -1.407440
 C         2.221084        -0.547444        -1.228260
 O         1.402464        -0.558038        -2.457870
 H        -0.138234         0.942099        -0.439069
 H        -0.318450        -0.922134        -0.549556
 H        -0.655417        -0.001214         0.933881
 H         2.848584         1.451556        -0.260478
 H         1.900875        -1.054194         2.169485
 H         3.220035        -2.988583         0.953394
 H         3.219456        -2.495863        -1.606858
 H         4.322536         0.121835        -0.689121
 H         4.182590        -0.451168        -2.442630
 H         0.824870         0.247653        -2.523178
