19
Iteration:  1230
 C         0.031670        -0.155883         0.058851
 C         1.572793         0.064403         0.024304
 O         1.961631         1.456608         0.184541
 C         2.057103        -1.006451         1.087590
 C         2.748160        -2.007536         0.476216
 C         3.101252        -1.792096        -0.980753
 C         3.743702        -0.422347        -1.205412
 C         2.300820        -0.562005        -1.344365
 O         1.503007        -0.546079        -2.579062
 H        -0.510689         0.471210        -0.693006
 H        -0.153798        -1.191701        -0.184324
 H        -0.454410         0.196656         1.069942
 H         2.516323         1.730876        -0.507904
 H         1.692565        -0.903163         2.089216
 H         3.140892        -2.854147         0.960331
 H         3.274022        -2.649470        -1.634563
 H         4.167749         0.118122        -0.415078
 H         4.423891        -0.335906        -2.068530
 H         0.922089         0.240110        -2.488342
