19
Iteration:  4553charge 0 multiplicity 1
 C         0.080524        -0.007752        -0.014635
 C         1.564301        -0.095347         0.026239
 O         1.986604         1.270309         0.280726
 C         2.106150        -1.052400         1.081737
 C         2.912324        -1.976656         0.442774
 C         3.158034        -1.750886        -1.026007
 C         3.661513        -0.231887        -1.437965
 C         2.209656        -0.560371        -1.339559
 O         1.268733        -0.472565        -2.407757
 H        -0.190711        -1.072918        -0.352156
 H        -0.296054         0.075132         0.950201
 H        -0.228819         0.907632        -0.706334
 H         2.572608         1.292971         1.157729
 H         2.001225        -0.880893         2.228512
 H         3.415937        -2.694215         1.144999
 H         3.641229        -2.543478        -1.583041
 H         4.177520         0.509628        -0.788049
 H         4.046121        -0.417319        -2.480694
 H         1.569335        -1.025730        -3.115418
