19
Iteration:   326
 C         0.042222        -0.116127        -0.108183
 C         1.515355        -0.062860         0.009812
 O         1.880642         1.357197         0.185323
 C         2.094524        -1.006414         1.102102
 C         2.876104        -1.930913         0.575775
 C         3.097425        -1.819802        -0.935215
 C         3.752738        -0.389171        -1.352034
 C         2.243212        -0.678289        -1.302680
 O         1.429866        -0.372171        -2.490590
 H        -0.261596         0.943230         0.183707
 H        -0.321304        -0.156231        -1.166284
 H        -0.440456        -0.842239         0.531771
 H         2.770337         1.395672         0.696218
 H         1.897931        -0.643156         2.145189
 H         3.278070        -2.789824         1.142494
 H         3.356152        -2.778745        -1.368660
 H         4.254608         0.163045        -0.605175
 H         4.277979        -0.499902        -2.307367
 H         1.866042         0.297956        -3.029309
