19
Iteration:   763
 C         0.021137        -0.135189        -0.000529
 C         1.670597         0.053441        -0.086327
 O         1.833764         1.480852         0.082696
 C         2.159812        -0.991912         1.046984
 C         2.711551        -2.114505         0.570955
 C         3.080260        -1.808433        -0.826550
 C         3.762579        -0.462333        -1.280765
 C         2.294944        -0.494026        -1.338986
 O         1.531979        -0.454514        -2.520651
 H        -0.505533         0.627361         0.559767
 H        -0.407445        -0.149917        -0.975861
 H        -0.045641        -1.095206         0.562168
 H         2.789755         1.684281         0.428558
 H         1.747531        -0.841774         2.031569
 H         2.724778        -3.065869         1.033614
 H         3.234442        -2.617656        -1.498958
 H         4.372987         0.180255        -0.613687
 H         4.311389        -0.675428        -2.137419
 H         0.633801        -0.215191        -2.195421
