19
Iteration:  2386
 C         0.026577        -0.020855         0.003943
 C         1.549568        -0.017289        -0.004517
 O         2.006401         1.359962         0.251092
 C         2.053846        -1.015027         1.080940
 C         2.951605        -1.885564         0.575868
 C         3.121913        -1.757017        -1.025360
 C         3.667167        -0.455123        -1.482758
 C         2.203603        -0.593177        -1.247544
 O         1.362741        -0.558777        -2.465570
 H        -0.455134         0.948317        -0.189341
 H        -0.283327        -0.795300        -0.674072
 H        -0.252829        -0.400056         1.036128
 H         2.919270         1.356755         0.060170
 H         1.913318        -0.849164         2.184994
 H         3.390044        -2.809579         1.083631
 H         3.141434        -2.676123        -1.628822
 H         4.330800         0.120875        -0.754896
 H         4.019102        -0.303406        -2.474050
 H         1.588036         0.323137        -2.801691
