19
Iteration:  1790
 C         0.081611        -0.164611        -0.035051
 C         1.615166        -0.023891         0.040804
 O         2.026546         1.329157         0.235221
 C         2.151714        -0.958523         1.064763
 C         2.876608        -1.910823         0.541736
 C         3.049814        -1.807701        -0.947239
 C         3.703261        -0.500636        -1.364682
 C         2.235255        -0.519376        -1.331979
 O         1.319244        -0.395738        -2.415560
 H        -0.284481         0.701838        -0.654025
 H        -0.251983        -1.019820        -0.603846
 H        -0.401625        -0.054717         0.959266
 H         1.673563         1.786332        -0.501901
 H         2.027998        -0.630504         2.059049
 H         3.172007        -2.839609         1.112754
 H         3.031814        -2.674617        -1.634527
 H         4.135671         0.053223        -0.539553
 H         4.188387        -0.604674        -2.417939
 H         1.731910        -0.214746        -3.286780
