19
Iteration:  2861
 C        -0.059800         0.004473         0.064868
 C         1.481115        -0.144339         0.057487
 O         1.903793         1.311041         0.226999
 C         2.153335        -0.987004         1.096068
 C         3.048102        -1.804168         0.468585
 C         3.169492        -1.798328        -0.972275
 C         3.650156        -0.475110        -1.458480
 C         2.116844        -0.630310        -1.254271
 O         1.479952        -0.468094        -2.563651
 H        -0.591949         0.476004        -0.821552
 H        -0.656197        -0.894113         0.227054
 H        -0.275105         0.760919         0.923863
 H         2.826142         1.336831         0.491071
 H         2.018544        -1.047533         2.144874
 H         3.524133        -2.664091         0.988256
 H         3.471945        -2.789944        -1.489002
 H         4.209591         0.151789        -0.706708
 H         3.913867        -0.411187        -2.448142
 H         1.817082         0.415078        -2.736730
