19
Iteration:  3775
 C        -0.049648        -0.097072         0.014857
 C         1.513082         0.024273         0.051075
 O         2.120901         1.327041         0.197075
 C         2.139446        -1.053191         1.052391
 C         2.940593        -1.987599         0.525923
 C         3.062315        -1.635825        -0.921374
 C         3.585307        -0.335486        -1.387327
 C         2.192588        -0.452883        -1.293213
 O         1.487522        -0.717426        -2.566921
 H        -0.424006         0.920846        -0.416689
 H        -0.228060        -0.911567        -0.702672
 H        -0.384031        -0.343417         1.039791
 H         1.704274         1.767722         0.888693
 H         2.018856        -0.778087         2.097792
 H         3.569418        -2.773090         1.031292
 H         3.137962        -2.422533        -1.687838
 H         4.094883         0.254163        -0.601573
 H         4.264329        -0.314649        -2.255490
 H         1.030033         0.099028        -2.774268
