19
Iteration:  3016
 C        -0.006099        -0.260702         0.154082
 C         1.591512        -0.017704         0.053959
 O         1.899762         1.393141         0.046030
 C         2.241025        -0.919692         1.087525
 C         2.924976        -1.924796         0.520227
 C         2.965710        -1.810923        -1.007508
 C         3.697010        -0.508148        -1.393692
 C         2.219295        -0.533811        -1.307720
 O         1.513552        -0.408415        -2.493191
 H        -0.577157         0.269617        -0.595462
 H        -0.230393        -1.420673         0.299900
 H        -0.231491         0.143654         1.187192
 H         1.312902         1.875064         0.726408
 H         1.861875        -0.817101         2.121774
 H         3.430152        -2.793383         0.915503
 H         3.020452        -2.635669        -1.645369
 H         4.310547         0.083689        -0.741923
 H         4.131223        -0.404966        -2.392117
 H         1.876590         0.463077        -2.798690
