19
Iteration:  4055
 C        -0.060563         0.089329        -0.043465
 C         1.535408        -0.089665         0.082738
 O         2.059106         1.259794         0.446538
 C         2.076208        -1.076352         1.095522
 C         3.004883        -1.958095         0.522892
 C         3.126935        -1.622319        -0.975369
 C         3.631090        -0.223679        -1.453995
 C         2.169871        -0.519322        -1.353092
 O         1.422567        -0.784713        -2.557487
 H        -0.328668         0.293648        -1.161938
 H        -0.726671        -0.663094         0.202069
 H        -0.402888         1.005065         0.564983
 H         2.935200         1.364035        -0.034966
 H         1.644883        -1.219591         2.094656
 H         3.738606        -2.652517         0.942831
 H         3.373881        -2.477176        -1.626865
 H         4.052406         0.652265        -0.801103
 H         4.055164        -0.268040        -2.521828
 H         1.260299        -0.041282        -3.157165
