19
Iteration:  1304charge 0 multiplicity 1
 C         0.098212        -0.179647        -0.249064
 C         1.620486         0.001711        -0.006807
 O         1.854942         1.397407         0.300656
 C         2.181145        -0.929686         1.127730
 C         2.980139        -1.877594         0.636240
 C         2.954224        -1.866891        -0.911434
 C         3.643811        -0.674478        -1.435805
 C         2.260918        -0.507817        -1.330539
 O         1.427551        -0.354602        -2.484364
 H        -0.364453         0.408070        -1.023181
 H        -0.124074        -1.145636        -0.594960
 H        -0.397577         0.080643         0.731595
 H         2.101643         1.472941         1.227252
 H         1.916864        -0.742670         2.143751
 H         3.552607        -2.415520         1.327876
 H         2.983612        -2.795739        -1.488341
 H         4.252289        -0.153191        -0.770948
 H         4.167713        -0.642535        -2.396389
 H         1.635419         0.473597        -2.965895
