19
Iteration:  1346
 C         0.043124        -0.204447        -0.027382
 C         1.537086         0.012272         0.006867
 O         1.989434         1.485442         0.180379
 C         2.110309        -0.947967         1.023662
 C         2.811193        -1.980948         0.504215
 C         3.045503        -1.811382        -0.933079
 C         3.759531        -0.541338        -1.392157
 C         2.243149        -0.443187        -1.265714
 O         1.529790        -0.523781        -2.447707
 H        -0.562740         0.459042        -0.636512
 H        -0.170750        -1.270496        -0.171134
 H        -0.290607         0.069224         0.993131
 H         1.596095         1.845807         0.933894
 H         1.804679        -0.938750         2.038433
 H         3.082058        -2.914633         0.863563
 H         2.882301        -2.623870        -1.654353
 H         4.205152        -0.000809        -0.559389
 H         4.376579        -0.483178        -2.362576
 H         1.296176         0.286668        -2.952864
