19
Iteration:  2290
 C         0.053882        -0.065804         0.270712
 C         1.532159        -0.027768         0.062527
 O         1.928273         1.307875         0.144431
 C         2.195820        -0.936501         1.076870
 C         2.813780        -1.967610         0.472470
 C         2.964172        -1.718598        -1.006568
 C         3.646187        -0.383685        -1.410101
 C         2.184258        -0.574805        -1.298188
 O         1.597544        -0.570673        -2.590996
 H        -0.470774         0.584287        -0.359003
 H        -0.405962        -1.021062         0.397259
 H        -0.164654         0.432886         1.254982
 H         2.812684         1.295696        -0.189075
 H         1.729903        -0.858433         2.090246
 H         3.385823        -2.804467         0.928342
 H         3.114620        -2.523938        -1.766591
 H         4.270145         0.137125        -0.635244
 H         4.180446        -0.461022        -2.375211
 H         1.564319         0.324464        -3.003023
