19
Iteration:  2657
 C         0.046269        -0.054490        -0.023450
 C         1.594379         0.006421         0.107084
 O         1.865410         1.414638         0.470456
 C         2.208322        -0.923198         1.095178
 C         2.947123        -1.895977         0.551415
 C         2.904689        -1.752227        -1.003900
 C         3.651413        -0.529917        -1.633904
 C         2.188238        -0.519497        -1.306419
 O         1.557856        -0.648402        -2.598203
 H        -0.309957         0.123361        -0.987984
 H        -0.300760        -1.043314         0.269127
 H        -0.531725         0.587729         0.701156
 H         2.729703         1.401064         1.001742
 H         1.805929        -0.797990         2.073097
 H         3.655713        -2.465989         1.099219
 H         2.644488        -2.711139        -1.506757
 H         4.398185        -0.034811        -1.084395
 H         3.937925        -0.668934        -2.733410
 H         1.825360         0.184553        -3.001256
