19
Iteration:  3728
 C        -0.024202         0.062134        -0.131279
 C         1.523585        -0.108419        -0.023209
 O         1.957062         1.319019         0.345570
 C         1.998990        -1.084260         0.986045
 C         3.048238        -1.903015         0.519036
 C         3.213567        -1.671483        -0.948893
 C         3.739617        -0.347032        -1.440387
 C         2.270347        -0.517061        -1.315860
 O         1.291747        -0.685703        -2.373826
 H        -0.312509         0.521470        -1.109767
 H        -0.515382        -0.881803        -0.081262
 H        -0.330695         0.699690         0.749508
 H         2.741213         1.133601         0.968022
 H         1.701515        -1.148314         2.044844
 H         3.671209        -2.503098         1.226309
 H         3.292327        -2.559720        -1.548152
 H         4.234426         0.446002        -0.862228
 H         4.216816        -0.277959        -2.482808
 H         1.187923         0.065927        -2.978353
