19
Iteration:  2241
 C         0.115564        -0.157383        -0.043478
 C         1.616113        -0.013336        -0.022089
 O         1.827010         1.369293         0.073049
 C         2.251508        -0.912984         1.120291
 C         2.891525        -1.917866         0.517403
 C         2.938271        -1.781653        -0.942503
 C         3.798517        -0.614266        -1.368838
 C         2.264084        -0.559880        -1.299877
 O         1.346526        -0.373716        -2.345030
 H        -0.442572         0.651089        -0.654607
 H        -0.180060        -1.191718        -0.478623
 H        -0.382790        -0.218277         0.923792
 H         2.820158         1.544844        -0.059797
 H         2.237381        -0.709917         2.251650
 H         3.304837        -2.889228         0.935598
 H         2.857896        -2.603120        -1.582722
 H         4.477962        -0.251299        -0.567329
 H         4.085520        -0.503668        -2.371108
 H         1.046931         0.542989        -2.361033
