19
Iteration:  1577
 C         0.058556        -0.138671        -0.056840
 C         1.647236         0.000924        -0.017862
 O         1.902027         1.450395         0.316702
 C         2.136832        -0.949137         0.964504
 C         2.833535        -1.997828         0.522221
 C         3.007795        -1.833214        -0.980351
 C         3.809352        -0.538375        -1.411385
 C         2.293776        -0.532006        -1.265950
 O         1.389553        -0.406691        -2.380350
 H        -0.285779         0.214687        -1.010494
 H        -0.235847        -1.128648        -0.026369
 H        -0.391963         0.482203         0.760425
 H         1.200301         2.026788         0.316271
 H         2.124548        -0.761796         1.989406
 H         2.954240        -2.957973         1.050906
 H         3.184637        -2.743873        -1.557341
 H         4.356715        -0.041054        -0.675960
 H         4.226388        -0.662422        -2.416708
 H         1.872859        -0.451483        -3.239699
