19
Iteration:  1223
 C         0.048635        -0.115842         0.016589
 C         1.570919        -0.009985        -0.027438
 O         1.983369         1.400667         0.182696
 C         2.092934        -0.989345         1.034214
 C         2.724929        -1.994101         0.462420
 C         3.034220        -1.820499        -0.920689
 C         3.794886        -0.317273        -1.171005
 C         2.345737        -0.555789        -1.332223
 O         1.456999        -0.547539        -2.553841
 H        -0.583686         0.400450        -0.713998
 H        -0.252709        -1.210590         0.035894
 H        -0.502777         0.107397         0.882369
 H         2.517986         1.700618        -0.520434
 H         1.830823        -0.821690         2.136001
 H         3.121405        -2.924932         1.005512
 H         3.200530        -2.660346        -1.600324
 H         4.238863         0.157972        -0.257832
 H         4.248198        -0.204330        -2.223555
 H         0.908877         0.246849        -2.336751
