19
Iteration:  2561
 C         0.094495        -0.098822         0.170351
 C         1.594054         0.010966        -0.017904
 O         1.883588         1.447375         0.264804
 C         2.130207        -0.875098         0.948788
 C         2.842920        -1.942085         0.493106
 C         2.986011        -1.779291        -0.987592
 C         3.701699        -0.499951        -1.366421
 C         2.198782        -0.546025        -1.287665
 O         1.538679        -0.625365        -2.556994
 H        -0.400045         0.837449        -0.079346
 H        -0.368510        -0.930657        -0.565588
 H        -0.186421        -0.384117         1.243395
 H         2.895983         1.621245         0.132706
 H         2.104354        -0.687829         1.992778
 H         3.120578        -2.839184         0.982562
 H         3.162180        -2.621256        -1.644115
 H         4.284293        -0.166426        -0.544925
 H         4.164782        -0.578364        -2.421169
 H         1.001364         0.170236        -2.641400
