19
Iteration:  2341
 C         0.055238        -0.005040        -0.121576
 C         1.586129        -0.031091         0.028934
 O         1.913085         1.318563         0.496706
 C         2.164486        -0.947030         1.023185
 C         2.995708        -1.835545         0.493373
 C         3.004232        -1.783060        -0.981072
 C         3.720027        -0.513499        -1.545643
 C         2.243856        -0.551767        -1.315897
 O         1.338983        -0.610794        -2.440791
 H        -0.136622         0.537552        -1.123732
 H        -0.413161        -0.949918        -0.129751
 H        -0.551152         0.660484         0.568498
 H         2.794767         1.322879         0.834206
 H         2.212698        -0.622939         2.021909
 H         3.455164        -2.574611         1.116793
 H         2.939493        -2.803839        -1.516211
 H         4.331494         0.095972        -0.896568
 H         4.024589        -0.402411        -2.621780
 H         1.183430         0.217324        -2.898915
