19
Iteration:  4177
 C         0.234779        -0.440496         0.073803
 C         1.711233        -0.031247         0.018563
 O         1.611198         1.381464         0.220652
 C         2.302943        -0.835801         1.086819
 C         2.869629        -1.948992         0.508872
 C         2.834926        -1.839989        -1.013012
 C         3.737258        -0.700380        -1.429129
 C         2.227044        -0.458260        -1.290238
 O         1.525709        -0.132624        -2.490298
 H        -0.000970        -1.418766         0.371011
 H        -0.370223         0.145326         0.787142
 H        -0.262931        -0.242776        -0.839429
 H         2.444997         1.882372        -0.090061
 H         2.086583        -0.588865         2.081096
 H         3.168782        -2.874912         0.998645
 H         2.649670        -2.749178        -1.525418
 H         4.424610        -0.350765        -0.658515
 H         4.170394        -0.764397        -2.416654
 H         1.592566         0.862098        -2.646695
