19
Iteration:  1944
 C         0.038559        -0.030964         0.222075
 C         1.545052        -0.000908        -0.048459
 O         1.846994         1.373160         0.289227
 C         2.124220        -0.963927         1.053836
 C         2.909787        -1.947840         0.493194
 C         3.006101        -1.767248        -0.976116
 C         3.799273        -0.525009        -1.416989
 C         2.232579        -0.550365        -1.364071
 O         1.466319        -0.542873        -2.562065
 H        -0.434603         0.728209        -0.412558
 H        -0.409282        -0.979631         0.057750
 H        -0.206726         0.391699         1.229171
 H         2.561156         1.644188        -0.332322
 H         2.067444        -0.697426         2.168026
 H         3.041450        -2.900440         0.978933
 H         3.085369        -2.671615        -1.563278
 H         4.464855        -0.191594        -0.572063
 H         4.252351        -0.476589        -2.344524
 H         1.806189         0.109680        -3.190197
