19
Iteration:  4140charge 0 multiplicity 1
 C         0.035203        -0.464416         0.176642
 C         1.602693         0.043760         0.035351
 O         1.677448         1.458020         0.237118
 C         2.339971        -0.813219         1.047355
 C         2.867469        -1.944839         0.406916
 C         2.835097        -1.821896        -1.035539
 C         3.755022        -0.609405        -1.429397
 C         2.177296        -0.514250        -1.274503
 O         1.654228        -0.311376        -2.507141
 H        -0.188090        -1.263945        -0.624591
 H        -0.070180        -0.626386         1.212578
 H        -0.471685         0.519337        -0.191888
 H         2.613329         1.681898         0.352940
 H         2.257403        -0.530205         2.161845
 H         3.205104        -2.837660         0.944488
 H         2.568930        -2.662253        -1.721015
 H         4.444958        -0.449780        -0.551119
 H         4.154083        -0.493751        -2.487006
 H         1.933094         0.625265        -2.685311
