19
Iteration:  2796charge 0 multiplicity 1
 C         0.043038        -0.200805        -0.062358
 C         1.615220         0.115034         0.109281
 O         1.785608         1.536615         0.395164
 C         2.318627        -0.915462         1.086246
 C         2.842409        -2.029557         0.490970
 C         2.953026        -1.854227        -1.000828
 C         3.689729        -0.562454        -1.534481
 C         2.262014        -0.443595        -1.326496
 O         1.489057        -0.578580        -2.498370
 H        -0.534842         0.682487        -0.506117
 H        -0.035935        -1.111936        -0.607811
 H        -0.221798        -0.401412         1.030502
 H         2.701396         1.732269         0.296407
 H         2.263455        -0.918047         2.158984
 H         3.305830        -2.639143         1.281389
 H         2.900312        -2.788722        -1.650993
 H         4.349256        -0.158250        -0.754945
 H         4.027679        -0.473355        -2.536089
 H         1.270167         0.253675        -2.988285
