19
Iteration:  1297
 C         0.033582        -0.147862        -0.178656
 C         1.661103         0.030117        -0.068408
 O         1.822382         1.400876         0.307982
 C         2.182841        -0.897564         1.070513
 C         3.035349        -1.855097         0.606375
 C         2.951283        -1.909801        -0.875252
 C         3.723717        -0.677086        -1.372879
 C         2.196904        -0.564691        -1.295589
 O         1.435362        -0.340967        -2.523456
 H        -0.337763         0.593609        -0.935035
 H        -0.224265        -1.180654        -0.569402
 H        -0.674138         0.031853         0.669255
 H         2.167965         1.331742         1.276239
 H         1.840687        -0.853451         2.166492
 H         3.708005        -2.627599         1.148847
 H         2.957858        -2.755959        -1.564311
 H         4.424678        -0.166784        -0.687091
 H         4.031433        -0.691556        -2.438022
 H         1.676178         0.439302        -3.036699
