19
Iteration:  3602charge 0 multiplicity 1
 C         0.075098        -0.334952         0.076623
 C         1.599410        -0.041414        -0.036838
 O         1.773315         1.431837         0.048222
 C         2.319395        -0.818706         1.083289
 C         2.895749        -1.953554         0.540874
 C         2.983261        -1.810800        -0.971757
 C         3.718432        -0.564429        -1.297516
 C         2.170673        -0.604054        -1.267006
 O         1.483000        -0.270242        -2.530437
 H        -0.469249         0.287481        -0.617664
 H        -0.019710        -1.384518        -0.201295
 H        -0.183230        -0.035495         1.110292
 H         2.225299         1.519140         0.973009
 H         2.117588        -0.697211         2.127816
 H         3.245017        -2.936053         1.006450
 H         2.859197        -2.700808        -1.568907
 H         4.244399        -0.290145        -0.413215
 H         4.188432        -0.672646        -2.307034
 H         1.656787         0.678890        -2.723612
