19
Iteration:  1288
 C        -0.042503        -0.105049        -0.105958
 C         1.505775        -0.008203        -0.010465
 O         1.811583         1.405988         0.306082
 C         2.219117        -0.881934         0.982610
 C         3.025584        -1.848190         0.557765
 C         2.966545        -1.852619        -0.895511
 C         3.825562        -0.681714        -1.355302
 C         2.183709        -0.618304        -1.305274
 O         1.474500        -0.372141        -2.538738
 H        -0.208080         0.734266        -0.821894
 H        -0.312780        -1.136221        -0.563213
 H        -0.490720         0.001959         0.865183
 H         2.338284         1.362080         1.188632
 H         1.948752        -0.668140         2.066386
 H         3.592972        -2.735269         1.016369
 H         2.872913        -2.815741        -1.414269
 H         4.517896        -0.125773        -0.589897
 H         4.056971        -0.779863        -2.415803
 H         2.008005         0.387429        -2.811156
