19
Iteration:  1901
 C         0.086828        -0.182843        -0.189962
 C         1.643838        -0.005373         0.104712
 O         1.937553         1.360092         0.259009
 C         2.157947        -0.938440         1.113647
 C         3.000486        -1.901997         0.551041
 C         2.846695        -1.794468        -0.964188
 C         3.717683        -0.586826        -1.447922
 C         2.242628        -0.421685        -1.313295
 O         1.388330        -0.475909        -2.441946
 H        -0.271267         0.385008        -1.020522
 H        -0.095174        -1.214952        -0.210722
 H        -0.426592         0.393084         0.607094
 H         2.944841         1.399308         0.472132
 H         2.183830        -0.561506         2.192959
 H         3.372518        -2.765815         1.050036
 H         2.757574        -2.605543        -1.662948
 H         4.281320        -0.000923        -0.671883
 H         4.103850        -0.599429        -2.420733
 H         0.694764         0.212388        -2.439450
