19
Iteration:  3781charge 0 multiplicity 1
 C        -0.022429        -0.074261         0.039013
 C         1.506209         0.030758         0.052626
 O         2.102768         1.306850         0.214452
 C         2.162624        -1.030089         1.039267
 C         2.960093        -1.903031         0.507087
 C         2.994122        -1.643738        -0.949217
 C         3.661124        -0.373554        -1.353973
 C         2.163185        -0.501064        -1.275902
 O         1.506295        -0.713063        -2.572422
 H        -0.580755         0.760317        -0.323450
 H        -0.255653        -0.887135        -0.683598
 H        -0.466615        -0.490903         0.965582
 H         1.512967         1.835495         0.857347
 H         2.030260        -0.785620         2.085262
 H         3.471501        -2.797770         0.831839
 H         3.054294        -2.466329        -1.648543
 H         4.147928         0.186347        -0.579746
 H         4.179431        -0.259383        -2.369725
 H         1.188636         0.144575        -2.901862
