19
Iteration:   870
 C         0.031673        -0.057688        -0.141712
 C         1.606090         0.033001         0.034135
 O         1.900392         1.470476         0.217654
 C         2.038672        -1.034816         1.096027
 C         2.860398        -1.933424         0.627363
 C         3.021734        -1.729635        -0.884358
 C         3.836003        -0.563327        -1.414006
 C         2.277114        -0.520653        -1.236867
 O         1.480713        -0.544458        -2.544423
 H        -0.573739        -0.335983         0.704132
 H        -0.219925         0.898588        -0.541129
 H        -0.154557        -0.647719        -1.044160
 H         2.929362         1.526777         0.094399
 H         1.570961        -0.959972         2.060235
 H         3.249565        -2.742056         1.219711
 H         3.009589        -2.542835        -1.594535
 H         4.335193         0.008569        -0.643431
 H         4.236261        -0.647279        -2.456534
 H         0.577399        -0.879512        -2.319212
