19
Iteration:  1750
 C         0.002032        -0.059882        -0.107849
 C         1.527360        -0.060053         0.011277
 O         1.995273         1.374087         0.366254
 C         2.163871        -0.946020         1.007736
 C         2.963236        -1.858556         0.550161
 C         3.096714        -1.849717        -0.916407
 C         3.636107        -0.654718        -1.548620
 C         2.223422        -0.499659        -1.286022
 O         1.431373        -0.420287        -2.423124
 H        -0.172538         0.033951        -1.184361
 H        -0.400531        -0.989901         0.230971
 H        -0.562946         0.650478         0.562322
 H         1.164496         1.786151         0.823088
 H         1.996084        -0.769469         2.083432
 H         3.507695        -2.695233         1.087777
 H         2.945029        -2.762470        -1.530830
 H         4.351271        -0.144230        -0.977504
 H         4.157930        -0.542410        -2.474856
 H         1.953097         0.125246        -3.012193
