19
Iteration:  3824
 C        -0.038205        -0.127308         0.008982
 C         1.555076         0.000295        -0.026509
 O         1.839003         1.372169         0.259293
 C         2.275154        -0.970773         1.062610
 C         3.033541        -1.952577         0.602494
 C         3.042934        -1.817322        -0.896384
 C         3.745390        -0.611311        -1.447446
 C         2.225132        -0.521658        -1.342826
 O         1.404083        -0.348129        -2.509536
 H        -0.456613         0.653007        -0.520801
 H        -0.209275        -1.155891        -0.441074
 H        -0.186089        -0.159737         1.108270
 H         0.900704         1.785860         0.465911
 H         2.193309        -0.747460         2.090641
 H         3.450793        -2.716153         1.259698
 H         3.080647        -2.761726        -1.446057
 H         4.470801         0.102716        -1.206596
 H         4.001689        -0.843665        -2.531291
 H         1.910964         0.278743        -3.088065
