19
Iteration:  1489charge 0 multiplicity 1
 C        -0.006891        -0.100121        -0.012628
 C         1.569750         0.031993        -0.005758
 O         1.905642         1.345887         0.406452
 C         2.185484        -0.977531         1.105922
 C         2.875548        -1.923450         0.493567
 C         2.918600        -1.779141        -0.965919
 C         3.740064        -0.619703        -1.478950
 C         2.278443        -0.415283        -1.357833
 O         1.559503        -0.536258        -2.516483
 H        -0.516451         0.773487        -0.390675
 H        -0.312651        -0.925148        -0.534047
 H        -0.225315         0.040239         1.055168
 H         1.693850         1.931739        -0.291805
 H         2.005076        -0.888234         2.244081
 H         3.606663        -2.518047         1.128602
 H         2.646936        -2.687098        -1.492629
 H         4.361877        -0.185923        -0.647665
 H         4.099191        -0.630146        -2.447161
 H         1.585870         0.337479        -2.983946
