19
Iteration:  2004charge 0 multiplicity 1
 C         0.064018        -0.138873        -0.020390
 C         1.580132        -0.044847         0.040209
 O         1.968372         1.357495         0.154706
 C         2.202554        -0.944933         1.086899
 C         2.903753        -1.974497         0.539760
 C         2.990465        -1.794399        -0.931344
 C         3.662663        -0.491169        -1.432827
 C         2.182504        -0.526833        -1.299645
 O         1.378813        -0.336143        -2.399022
 H         0.026427         0.575298        -0.859062
 H        -0.352733        -1.091994        -0.421080
 H        -0.417813         0.148483         0.885422
 H         2.840134         1.366716         0.453785
 H         2.096347        -0.820869         2.155841
 H         3.456962        -2.742076         1.095594
 H         3.175134        -2.564202        -1.668421
 H         4.187334         0.108207        -0.707698
 H         4.013935        -0.505174        -2.532987
 H         1.492774        -1.010110        -3.063897
