19
Iteration:  1648
 C        -0.004636        -0.073571        -0.075583
 C         1.564836        -0.062431         0.016975
 O         1.912637         1.356718         0.268824
 C         2.133054        -0.958141         1.032339
 C         2.946495        -1.905571         0.559643
 C         3.022195        -1.873681        -0.927219
 C         3.811260        -0.529195        -1.372812
 C         2.193193        -0.555937        -1.322921
 O         1.389585        -0.393316        -2.427533
 H        -0.394043         0.926299        -0.315187
 H        -0.462608        -0.681861        -0.883312
 H        -0.454208        -0.168180         0.886632
 H         2.310022         1.600651        -0.525702
 H         2.206082        -0.665192         2.118756
 H         3.438491        -2.752334         1.001973
 H         3.111225        -2.800041        -1.491630
 H         4.395725        -0.106656        -0.451501
 H         4.332382        -0.518025        -2.301008
 H         1.792173         0.061578        -3.199553
