19
Iteration:   799
 C         0.023035        -0.091779         0.003994
 C         1.570566         0.015218        -0.013947
 O         1.807458         1.400023         0.142612
 C         2.120283        -0.924878         1.049565
 C         2.841293        -2.024662         0.590830
 C         2.925960        -1.787452        -0.915145
 C         3.795896        -0.536721        -1.309170
 C         2.259277        -0.503098        -1.276794
 O         1.627110        -0.393099        -2.524730
 H        -0.392033         0.642483         0.728337
 H        -0.412683         0.099391        -1.008172
 H        -0.338437        -1.147648         0.133014
 H         2.778057         1.578342        -0.131532
 H         2.026479        -0.689919         2.113557
 H         3.378572        -2.755532         1.245087
 H         2.741641        -2.663355        -1.588964
 H         4.460369        -0.182824        -0.571166
 H         4.184104        -0.640411        -2.372614
 H         1.298523        -1.288175        -2.770417
