19
Iteration:   790
 C         0.095033        -0.133761         0.034363
 C         1.514744        -0.015358        -0.011354
 O         1.794172         1.474353         0.130135
 C         2.145591        -0.913721         1.063501
 C         2.695792        -1.952543         0.517211
 C         3.033931        -1.821903        -0.950452
 C         3.799333        -0.520852        -1.340795
 C         2.275520        -0.558805        -1.259130
 O         1.625774        -0.418370        -2.474180
 H        -0.363518         0.694836         0.624045
 H        -0.078648         0.109575        -1.073151
 H        -0.255217        -1.082553         0.436286
 H         2.816699         1.417471        -0.026263
 H         1.828533        -0.792254         2.117017
 H         3.083406        -2.856271         1.076584
 H         2.883037        -2.745724        -1.582984
 H         4.411894        -0.206685        -0.487651
 H         4.324847        -0.428168        -2.345373
 H         1.024040        -1.179089        -2.660236
