19
Iteration:  3179
 C         0.060668        -0.075936         0.054888
 C         1.570601         0.018368         0.007595
 O         2.060470         1.337821         0.126587
 C         2.162169        -1.110077         1.099111
 C         2.882185        -2.037400         0.484998
 C         2.989183        -1.647149        -0.937130
 C         3.683176        -0.235689        -1.358881
 C         2.234814        -0.507904        -1.295693
 O         1.428948        -0.683432        -2.422153
 H        -0.313023         0.612963        -0.678867
 H        -0.286990        -1.113097        -0.410801
 H        -0.488274         0.070841         0.977841
 H         1.417799         1.849051        -0.305221
 H         2.024511        -0.892439         2.150374
 H         3.429109        -2.948220         0.905343
 H         3.051552        -2.435009        -1.757906
 H         3.913112         0.508064        -0.507480
 H         4.304828        -0.351431        -2.235581
 H         1.247409         0.178153        -2.847353
