19
Iteration:  2916
 C        -0.005414        -0.156171         0.114971
 C         1.656900         0.082155         0.017540
 O         1.905427         1.443593         0.304310
 C         2.184907        -0.903605         0.977216
 C         2.812543        -1.968171         0.467622
 C         3.116120        -1.778263        -0.989058
 C         3.768648        -0.384942        -1.391681
 C         2.243789        -0.539957        -1.308304
 O         1.406987        -0.691520        -2.497604
 H        -0.388795         0.606215        -0.586166
 H        -0.194304        -1.189787        -0.311808
 H        -0.502781        -0.270927         1.152515
 H         2.510806         1.894249        -0.377063
 H         1.670869        -1.136411         1.899265
 H         2.900402        -2.886884         1.055808
 H         3.271917        -2.607850        -1.750089
 H         4.122508         0.175856        -0.532171
 H         4.320976        -0.226052        -2.299086
 H         1.078031         0.203429        -2.599249
