19
Iteration:  1420
 C         0.039357        -0.096157        -0.003882
 C         1.549904        -0.062655         0.005640
 O         2.088070         1.295041         0.261138
 C         2.009894        -1.041721         1.064456
 C         2.948812        -1.849681         0.535783
 C         3.051284        -1.759950        -0.924058
 C         3.678737        -0.518951        -1.380329
 C         2.184870        -0.497688        -1.345758
 O         1.457045        -0.461184        -2.487059
 H        -0.410986         0.500756        -0.826363
 H        -0.399780        -1.109130        -0.226966
 H        -0.349297         0.456740         0.813003
 H         1.417697         2.041838         0.143393
 H         1.892964        -1.080835         2.103653
 H         3.491129        -2.625679         1.005814
 H         3.021661        -2.665076        -1.544977
 H         4.156935         0.074564        -0.623897
 H         4.274409        -0.492971        -2.378104
 H         1.750371         0.282699        -3.052929
