19
Iteration:  3017charge 0 multiplicity 1
 C         0.000099        -0.266703         0.163890
 C         1.586870        -0.010037         0.052780
 O         1.903292         1.399155         0.044293
 C         2.236215        -0.922466         1.084404
 C         2.916463        -1.930596         0.510576
 C         2.971226        -1.816261        -1.004748
 C         3.694156        -0.501591        -1.394425
 C         2.218441        -0.528447        -1.304390
 O         1.514254        -0.413775        -2.487711
 H        -0.566689         0.269786        -0.611263
 H        -0.197317        -1.419324         0.264714
 H        -0.227362         0.148629         1.160612
 H         1.313912         1.878844         0.679475
 H         1.875777        -0.838124         2.116793
 H         3.429898        -2.794640         0.915766
 H         3.012166        -2.660257        -1.631176
 H         4.326754         0.111274        -0.729365
 H         4.126771        -0.405248        -2.365660
 H         1.862286         0.465836        -2.796581
