19
Iteration:   266
 C        -0.042040        -0.002200        -0.051492
 C         1.502030         0.039497         0.017687
 O         1.835979         1.402511         0.383971
 C         2.227350        -0.983560         1.051256
 C         2.886361        -2.007063         0.561040
 C         3.034222        -1.822913        -0.969817
 C         3.674655        -0.524335        -1.339107
 C         2.165631        -0.472773        -1.280042
 O         1.700679        -0.594689        -2.638986
 H        -0.540677         0.814082         0.447478
 H        -0.379590        -0.176675        -1.093551
 H        -0.488421        -0.919103         0.448392
 H         2.541645         1.775600        -0.236813
 H         1.971872        -0.751232         2.103120
 H         3.497054        -2.781615         1.007117
 H         2.936972        -2.659329        -1.644416
 H         4.325079         0.000533        -0.526535
 H         4.120550        -0.341607        -2.299060
 H         1.169417         0.198544        -2.780181
