19
Iteration:   834
 C        -0.015500        -0.058671        -0.117133
 C         1.509358        -0.055276         0.048842
 O         1.889898         1.301658         0.333811
 C         2.113711        -0.788472         1.002172
 C         2.930015        -1.802399         0.648681
 C         2.998215        -1.903791        -0.877055
 C         3.748862        -0.621948        -1.404306
 C         2.158019        -0.714009        -1.295774
 O         1.601539        -0.306041        -2.566595
 H        -0.748098        -0.129478         0.724981
 H        -0.120573         0.949310        -0.653322
 H        -0.239561        -0.908128        -0.708560
 H         2.658930         1.591192        -0.294942
 H         2.014976        -0.391707         2.023379
 H         3.587735        -2.234162         1.423233
 H         2.772983        -2.791785        -1.491300
 H         4.514907        -0.264418        -0.623274
 H         4.130754        -0.519180        -2.386002
 H         1.365564        -1.083123        -3.131019
