19
Iteration:  1644
 C        -0.029528        -0.088925        -0.103891
 C         1.552218        -0.030853         0.024094
 O         1.925703         1.350638         0.303365
 C         2.143959        -0.962110         1.055948
 C         2.940396        -1.875629         0.543970
 C         3.035435        -1.889479        -0.932874
 C         3.757186        -0.567134        -1.405640
 C         2.209892        -0.537170        -1.309815
 O         1.417843        -0.394379        -2.420283
 H        -0.347946         0.928245        -0.317912
 H        -0.510688        -0.714267        -0.886447
 H        -0.488050        -0.214719         0.890293
 H         2.297976         1.644643        -0.612799
 H         2.269008        -0.622740         2.101259
 H         3.482618        -2.680860         1.095962
 H         3.128869        -2.757374        -1.608399
 H         4.182444        -0.120285        -0.509191
 H         4.360288        -0.511818        -2.361594
 H         1.922073        -0.027331        -3.154773
