19
Iteration:  2268charge 0 multiplicity 1
 C         0.067667        -0.160228         0.194533
 C         1.560266        -0.026307         0.009731
 O         2.000447         1.461567         0.049600
 C         2.194855        -0.970104         1.017286
 C         2.882948        -2.018393         0.511171
 C         3.020398        -1.825059        -0.950328
 C         3.636918        -0.443744        -1.228041
 C         2.176838        -0.623435        -1.341607
 O         1.425577        -0.428675        -2.511401
 H        -0.378304         0.552634        -0.437405
 H        -0.193586        -1.129839        -0.160977
 H        -0.453991        -0.036477         1.153979
 H         2.683846         1.535913        -0.686303
 H         2.128118        -0.632880         2.037954
 H         3.265971        -2.855417         1.086601
 H         3.208580        -2.575755        -1.766338
 H         4.125244        -0.076932        -0.321911
 H         4.218686        -0.181149        -2.164020
 H         1.213029         0.488876        -2.693539
