19
Iteration:   649charge 0 multiplicity 1
 C         0.052654        -0.128408        -0.103811
 C         1.532385         0.051193         0.050211
 O         1.953334         1.415479         0.166460
 C         2.084473        -0.938425         1.058169
 C         2.737126        -1.975494         0.496352
 C         3.005458        -1.744179        -0.915345
 C         3.824994        -0.436011        -1.399678
 C         2.235685        -0.498175        -1.230597
 O         1.532392        -0.533519        -2.471033
 H        -0.488733        -0.457219         0.765548
 H        -0.539864         0.693770        -0.508461
 H        -0.079540        -0.982197        -0.715819
 H         2.452329         1.567201         1.050423
 H         2.015738        -0.955373         2.104193
 H         2.978636        -2.777289         1.165500
 H         3.302101        -2.535791        -1.599177
 H         4.232086         0.276742        -0.677212
 H         4.289734        -0.561064        -2.442646
 H         1.507164        -1.523862        -2.522345
