19
Iteration:  1972
 C        -0.006435        -0.052068         0.278342
 C         1.520038        -0.030385        -0.018896
 O         1.926992         1.369925         0.088268
 C         2.139408        -1.010003         1.009212
 C         2.950004        -1.950328         0.482950
 C         2.989437        -1.843854        -0.989569
 C         3.666556        -0.444449        -1.311367
 C         2.183739        -0.582973        -1.341607
 O         1.490598        -0.416127        -2.499427
 H        -0.304597         0.841431        -0.350378
 H        -0.558868        -0.951141        -0.085505
 H        -0.250962         0.309286         1.271345
 H         2.950161         1.334042         0.115040
 H         2.111519        -0.736974         2.026508
 H         3.450055        -2.691370         1.136395
 H         3.269575        -2.661228        -1.647289
 H         4.090026         0.006350        -0.432932
 H         4.265027        -0.320049        -2.293497
 H         2.087091        -0.611535        -3.260062
