19
Iteration:  1708
 C         0.017817        -0.130837         0.041323
 C         1.566326         0.032359         0.032404
 O         1.974307         1.378192         0.217578
 C         2.225857        -0.936107         1.034273
 C         2.811112        -1.970151         0.508951
 C         2.975145        -1.766182        -1.003183
 C         3.655004        -0.512785        -1.365029
 C         2.181238        -0.470454        -1.305232
 O         1.592869        -0.552429        -2.550546
 H        -0.400491         0.244700        -0.890306
 H        -0.338153        -1.105289         0.422510
 H        -0.258348         0.592928         0.870766
 H         2.351267         1.463299         1.117116
 H         1.910954        -0.858576         2.120481
 H         3.376550        -2.736284         1.098622
 H         2.816526        -2.648252        -1.658910
 H         4.155812         0.000128        -0.542159
 H         4.166937        -0.443630        -2.314521
 H         1.075635         0.136692        -3.012332
