19
Iteration:  2830
 C         0.110614        -0.175697        -0.137573
 C         1.597264        -0.023630        -0.045176
 O         1.883085         1.329994         0.377811
 C         2.176890        -0.934787         1.065238
 C         2.949895        -1.858365         0.553155
 C         2.995507        -1.777183        -0.935045
 C         3.718313        -0.541878        -1.538999
 C         2.265240        -0.395268        -1.305338
 O         1.321116        -0.532804        -2.414210
 H        -0.388455         0.246435        -1.003605
 H        -0.225432        -1.245360        -0.012491
 H        -0.287097         0.414582         0.781584
 H         2.812442         1.427438         0.730413
 H         1.853416        -0.762446         2.068368
 H         3.472655        -2.592201         1.203123
 H         2.947238        -2.722730        -1.601077
 H         4.391412         0.023928        -0.820689
 H         4.122663        -0.573367        -2.496625
 H         1.376782         0.318815        -2.922439
