19
Iteration:  3583
 C         0.050051        -0.322340         0.125113
 C         1.573681        -0.038576         0.000194
 O         1.761382         1.384202         0.191869
 C         2.223028        -0.805992         1.002918
 C         2.923265        -1.867422         0.514598
 C         2.841912        -1.869002        -0.961130
 C         3.745974        -0.658863        -1.422467
 C         2.297484        -0.500419        -1.316735
 O         1.568894        -0.304343        -2.501838
 H        -0.527450         0.060326        -0.628470
 H        -0.108782        -1.480537         0.088331
 H        -0.318355         0.232538         0.938802
 H         1.677839         1.647262         1.179923
 H         2.226317        -0.552305         2.042124
 H         3.631709        -2.479643         1.195056
 H         2.954052        -2.790088        -1.618670
 H         4.299206        -0.112119        -0.701741
 H         4.116613        -0.559616        -2.503528
 H         2.009886         0.322160        -3.133527
