19
Iteration:  2240charge 0 multiplicity 1
 C         0.118882        -0.155023        -0.040246
 C         1.617084        -0.016115        -0.018915
 O         1.818234         1.367648         0.077728
 C         2.244694        -0.907526         1.116447
 C         2.893450        -1.913131         0.526841
 C         2.940099        -1.782421        -0.949498
 C         3.797935        -0.619586        -1.385141
 C         2.270334        -0.551243        -1.291051
 O         1.350984        -0.376819        -2.346356
 H        -0.408119         0.642109        -0.681310
 H        -0.181918        -1.212254        -0.506881
 H        -0.413168        -0.224609         0.918204
 H         2.843657         1.527898        -0.015616
 H         2.253016        -0.671085         2.263512
 H         3.284979        -2.925226         0.916364
 H         2.840868        -2.615835        -1.564864
 H         4.492983        -0.273110        -0.575559
 H         4.040750        -0.505911        -2.391996
 H         1.058588         0.558252        -2.349788
