19
Iteration:   796
 C         0.048266        -0.097417         0.022080
 C         1.544832         0.003717        -0.020112
 O         1.805952         1.424199         0.137371
 C         2.122427        -0.915143         1.051450
 C         2.804448        -2.022659         0.576022
 C         2.956538        -1.795839        -0.934675
 C         3.801831        -0.521595        -1.322376
 C         2.263882        -0.514046        -1.272541
 O         1.627072        -0.403453        -2.507776
 H        -0.369013         0.655806         0.673495
 H        -0.262878         0.058047        -0.990529
 H        -0.325446        -1.150662         0.174223
 H         2.720992         1.493952        -0.090825
 H         1.984514        -0.727637         2.106415
 H         3.285771        -2.750914         1.195951
 H         2.735888        -2.667900        -1.518135
 H         4.472375        -0.211986        -0.531795
 H         4.210136        -0.609979        -2.324705
 H         1.226303        -1.241270        -2.751524
