19
Iteration:  2659charge 0 multiplicity 1
 C         0.066579        -0.057419        -0.006176
 C         1.588184         0.015894         0.097511
 O         1.856211         1.439642         0.474232
 C         2.198141        -0.928664         1.091521
 C         2.945528        -1.893136         0.551320
 C         2.901911        -1.755983        -1.027780
 C         3.643541        -0.527272        -1.644166
 C         2.209780        -0.532229        -1.304966
 O         1.559385        -0.654690        -2.590603
 H        -0.270328         0.136889        -0.997948
 H        -0.333272        -1.118525         0.289653
 H        -0.575758         0.563523         0.651707
 H         2.740060         1.355423         1.016652
 H         1.807411        -0.754464         2.054539
 H         3.637572        -2.543017         1.104919
 H         2.614635        -2.764067        -1.478461
 H         4.434625        -0.039592        -1.022829
 H         3.930669        -0.645902        -2.690954
 H         1.833343         0.205427        -2.934855
