19
Iteration:   957
 C        -0.078538        -0.024286        -0.173890
 C         1.490617        -0.020450        -0.040413
 O         1.931107         1.284285         0.286337
 C         2.116043        -0.939433         1.087704
 C         2.889960        -1.907045         0.597222
 C         3.085533        -1.806671        -0.863528
 C         3.743434        -0.521683        -1.439586
 C         2.221920        -0.563471        -1.216791
 O         1.506964        -0.438644        -2.450089
 H        -0.401690         0.997583        -0.369860
 H        -0.499228        -0.641764        -0.981732
 H        -0.426388        -0.474843         0.787937
 H         2.781330         1.501655        -0.177126
 H         1.965511        -0.815312         2.143222
 H         3.431715        -2.722650         1.099533
 H         3.011916        -2.661928        -1.558895
 H         4.494120        -0.017580        -0.914434
 H         4.007144        -0.579903        -2.554690
 H         2.107008         0.089113        -3.034611
