19
Iteration:  1913charge 0 multiplicity 1
 C         0.114184        -0.125308        -0.108964
 C         1.568320         0.071060        -0.019745
 O         1.938662         1.430171         0.324124
 C         2.206676        -0.991376         1.115995
 C         2.877205        -1.958927         0.533021
 C         2.925836        -1.751240        -0.957310
 C         3.689695        -0.518198        -1.471974
 C         2.158339        -0.526332        -1.234585
 O         1.481680        -0.526506        -2.484008
 H        -0.289667         0.135724        -1.050523
 H        -0.096443        -1.195218        -0.106246
 H        -0.473407         0.216304         0.742796
 H         2.890393         1.484325         0.105735
 H         2.252080        -0.719627         2.220596
 H         3.459162        -2.757427         0.958486
 H         2.819817        -2.661837        -1.545427
 H         4.632901        -0.284130        -0.893966
 H         3.833219        -0.504790        -2.494553
 H         0.875362         0.245948        -2.435518
