19
Iteration:   621
 C         0.061996        -0.012846        -0.027106
 C         1.532382        -0.060596        -0.065822
 O         1.973316         1.347352         0.170125
 C         2.091165        -0.995032         1.071637
 C         2.886891        -1.938555         0.603732
 C         3.066280        -1.815408        -0.888027
 C         3.650031        -0.385681        -1.287732
 C         2.183538        -0.558328        -1.319960
 O         1.605344        -0.480480        -2.666591
 H        -0.219644         0.412818         0.988165
 H        -0.395238         0.648927        -0.801732
 H        -0.415995        -1.018055         0.010796
 H         1.721638         1.554436         1.140655
 H         1.871254        -0.884498         2.169261
 H         3.330026        -2.753236         1.239874
 H         3.301301        -2.726731        -1.501468
 H         3.940806         0.145038        -0.424497
 H         4.240673        -0.190368        -2.198752
 H         0.825506        -1.048695        -2.522319
