19
Iteration:  3263
 C         0.137450        -0.304308        -0.192181
 C         1.618379         0.055862         0.057966
 O         1.821826         1.448834         0.232152
 C         2.306951        -0.864438         1.135375
 C         2.918865        -1.861608         0.543887
 C         2.914475        -1.867028        -0.962049
 C         3.753315        -0.594357        -1.540556
 C         2.220774        -0.584775        -1.211203
 O         1.389775        -0.381415        -2.361260
 H        -0.351939         0.139232        -1.134118
 H         0.022315        -1.422218        -0.214096
 H        -0.477688         0.023916         0.721638
 H         1.251824         1.907712         0.958639
 H         2.139110        -0.725596         2.211311
 H         3.516904        -2.781762         0.893801
 H         2.872203        -2.664615        -1.711655
 H         4.522203        -0.143548        -0.802522
 H         3.970530        -0.574555        -2.609885
 H         1.819618         0.226859        -2.999995
