19
Iteration:  1829
 C        -0.001349        -0.116224         0.223249
 C         1.599009        -0.012516         0.023908
 O         1.893175         1.394946         0.222920
 C         2.157625        -0.951482         1.064128
 C         2.861046        -1.919906         0.509313
 C         2.949818        -1.823693        -1.005134
 C         3.739316        -0.498128        -1.357546
 C         2.184014        -0.470161        -1.329343
 O         1.501924        -0.511791        -2.596784
 H        -0.355727         0.896344         0.117869
 H        -0.266422        -0.811208        -0.663132
 H        -0.323940        -0.463777         1.196638
 H         2.667745         1.578840        -0.425204
 H         2.355160        -0.766173         2.130526
 H         3.196391        -2.781428         1.029763
 H         2.940246        -2.621420        -1.747386
 H         4.270946         0.029279        -0.481722
 H         4.164348        -0.436083        -2.314070
 H         2.260408        -0.437395        -3.188137
