19
Iteration:  3301charge 0 multiplicity 1
 C         0.121708        -0.355001         0.122278
 C         1.589896         0.010792        -0.018820
 O         1.865202         1.396670         0.073901
 C         2.253701        -0.853569         1.134219
 C         2.836243        -1.906841         0.554042
 C         2.918965        -1.778009        -1.003077
 C         3.757124        -0.555192        -1.373291
 C         2.253624        -0.549701        -1.338086
 O         1.463611        -0.363079        -2.534001
 H        -0.576611         0.340435        -0.368159
 H         0.036589        -1.377210        -0.277065
 H        -0.152523        -0.353220         1.166165
 H         1.582510         1.633389         0.994615
 H         2.023105        -0.623333         2.175827
 H         3.303552        -2.696080         1.039718
 H         2.903401        -2.699087        -1.536416
 H         4.438928        -0.153475        -0.675649
 H         4.173901        -0.561728        -2.375123
 H         1.347371         0.617905        -2.508507
