19
Iteration:  4578
 C        -0.037731         0.072400        -0.065027
 C         1.484677        -0.108653         0.043958
 O         2.094025         1.271884         0.327214
 C         2.101047        -1.223857         1.018968
 C         3.051664        -1.880784         0.521725
 C         3.173846        -1.601034        -1.000772
 C         3.613800        -0.274611        -1.522895
 C         2.140145        -0.577015        -1.315533
 O         1.328618        -0.565808        -2.386470
 H        -0.510533        -0.865995        -0.086797
 H        -0.231075         0.642134         0.851106
 H        -0.208142         0.658231        -0.951881
 H         2.671933         1.173498         1.201185
 H         1.675066        -1.343737         1.964844
 H         3.619600        -2.580225         1.142147
 H         2.972385        -2.569257        -1.630552
 H         4.126738         0.330365        -0.789130
 H         4.104316        -0.282468        -2.446572
 H         1.799210        -0.530720        -3.252865
