19
Iteration:   157
 C        -0.050737        -0.090943         0.006234
 C         1.538288         0.040949        -0.087022
 O         1.879322         1.425591         0.412367
 C         2.189153        -0.888314         0.980048
 C         2.841234        -1.967296         0.511506
 C         2.918153        -1.830571        -0.926277
 C         3.785005        -0.595933        -1.370521
 C         2.254135        -0.502515        -1.365219
 O         1.654410        -0.587268        -2.522398
 H        -0.207499        -0.688294         0.924775
 H        -0.356173         0.930402         0.239404
 H        -0.476152        -0.678361        -0.757226
 H         1.556453         2.095342        -0.341029
 H         2.117770        -0.665693         2.066918
 H         3.596663        -2.437657         1.149175
 H         2.895363        -2.703290        -1.580254
 H         4.233731        -0.076022        -0.555313
 H         4.310633        -0.615446        -2.370222
 H         1.207572         0.244249        -2.782958
