19
Iteration:  4821
 C        -0.010956        -0.161010         0.047613
 C         1.551677        -0.049654         0.019894
 O         1.889017         1.365256         0.241415
 C         2.190620        -0.985751         0.992794
 C         3.009493        -1.966937         0.484760
 C         3.077093        -1.853733        -1.000154
 C         3.691113        -0.445811        -1.348393
 C         2.203618        -0.559063        -1.279985
 O         1.357211        -0.364403        -2.485956
 H        -0.362687        -0.729105        -0.846522
 H        -0.376015        -0.663046         1.011724
 H        -0.522721         0.789367        -0.010549
 H         2.949188         1.376696         0.182614
 H         2.326386        -0.697711         2.037391
 H         3.640335        -2.496679         1.257496
 H         3.040847        -2.630739        -1.811404
 H         4.476986        -0.211131        -0.566580
 H         4.069888        -0.248734        -2.387636
 H         1.370622         0.568730        -2.737421
