19
Iteration:  4967
 C         0.100218        -0.159886         0.124509
 C         1.569288        -0.054410        -0.056700
 O         1.899705         1.358092         0.252673
 C         2.174120        -0.951924         1.032836
 C         2.925561        -1.950807         0.525859
 C         2.988146        -1.733952        -0.989519
 C         3.685938        -0.416700        -1.397256
 C         2.189462        -0.452954        -1.349941
 O         1.415965        -0.571914        -2.477238
 H        -0.424381         0.525000        -0.496115
 H        -0.232197        -1.114611        -0.126499
 H        -0.154444         0.059958         1.173589
 H         2.767608         1.583042        -0.182192
 H         2.029745        -0.767767         2.138985
 H         3.375651        -2.805556         1.042754
 H         3.265099        -2.485254        -1.698977
 H         4.205697        -0.101851        -0.477097
 H         4.321630        -0.314057        -2.273691
 H         1.308513         0.295708        -2.970085
