19
Iteration:  1281
 C        -0.044637        -0.087951        -0.071002
 C         1.433106        -0.057446         0.029637
 O         1.806082         1.391330         0.292144
 C         2.215312        -0.870409         1.012421
 C         2.971491        -1.871138         0.526113
 C         2.981048        -1.805983        -0.953998
 C         3.815236        -0.689567        -1.391792
 C         2.215716        -0.609333        -1.299971
 O         1.536515        -0.402652        -2.523910
 H        -0.429095         0.722241        -0.691967
 H        -0.420266        -0.970305        -0.553047
 H        -0.372029         0.072647         0.955033
 H         2.477565         1.449653         1.062012
 H         2.143343        -0.591795         2.023508
 H         3.470260        -2.529533         1.183647
 H         2.933966        -2.794017        -1.401850
 H         4.449733        -0.146431        -0.666016
 H         4.299663        -0.686016        -2.355372
 H         2.024088         0.365363        -2.853604
