19
Iteration:  4220
 C        -0.024318        -0.255739        -0.021240
 C         1.564564        -0.047378         0.034070
 O         1.833609         1.365135         0.201082
 C         2.199972        -0.965084         1.072643
 C         3.030353        -1.911933         0.437628
 C         2.924317        -1.780342        -1.021918
 C         3.801683        -0.601675        -1.406008
 C         2.229424        -0.483855        -1.248942
 O         1.454003        -0.325737        -2.417144
 H        -0.294340        -1.084790         0.624584
 H        -0.548967         0.673983         0.400079
 H        -0.317153        -0.315755        -1.050274
 H         2.650411         1.544541         0.659790
 H         2.170106        -0.871949         2.151768
 H         3.551991        -2.663806         1.028044
 H         2.856571        -2.546583        -1.734895
 H         4.525142        -0.215613        -0.683262
 H         3.905422        -0.445681        -2.478481
 H         1.297804         0.657991        -2.402638
