19
Iteration:   536charge 0 multiplicity 1
 C         0.031822        -0.111662        -0.123376
 C         1.609114         0.050281        -0.051982
 O         1.897067         1.360836         0.406714
 C         2.212840        -0.870067         1.030613
 C         2.790492        -1.965301         0.582671
 C         2.987708        -1.782946        -0.965698
 C         3.783252        -0.452031        -1.334117
 C         2.297635        -0.534015        -1.324043
 O         1.434487        -0.511937        -2.519629
 H        -0.514531         0.082546         0.817818
 H        -0.202071         0.589207        -0.953387
 H         0.049797        -1.184416        -0.513488
 H         2.280127         1.971373        -0.182199
 H         1.824664        -0.645131         2.053522
 H         2.987480        -2.956144         1.078612
 H         2.994788        -2.727354        -1.593338
 H         4.114405        -0.018028        -0.436238
 H         4.478462        -0.442659        -2.206767
 H         1.242843        -1.444478        -2.803840
