19
Iteration:  1915charge 0 multiplicity 1
 C         0.109450        -0.117801        -0.087573
 C         1.562294         0.068699        -0.027325
 O         1.940358         1.439739         0.331393
 C         2.220572        -0.988157         1.113951
 C         2.852901        -1.959640         0.519009
 C         2.940464        -1.750078        -0.949741
 C         3.683067        -0.516424        -1.473119
 C         2.165827        -0.548424        -1.226888
 O         1.491421        -0.528386        -2.488035
 H        -0.340882         0.174679        -1.030819
 H        -0.084937        -1.246448        -0.091173
 H        -0.494184         0.235165         0.724467
 H         2.828611         1.504477         0.067576
 H         2.200683        -0.767940         2.188255
 H         3.487272        -2.735393         0.984607
 H         2.823521        -2.659154        -1.580584
 H         4.612386        -0.278093        -0.918116
 H         3.837198        -0.497942        -2.548785
 H         0.919872         0.244953        -2.487033
