19
Iteration:  1094
 C        -0.005641        -0.143117        -0.100510
 C         1.589544        -0.077580         0.033698
 O         1.862065         1.351939         0.152316
 C         2.189982        -0.952085         1.106068
 C         2.808913        -1.995200         0.538483
 C         2.973193        -1.734995        -0.943037
 C         3.783668        -0.431436        -1.354899
 C         2.244942        -0.562256        -1.276557
 O         1.545158        -0.435174        -2.410733
 H        -0.420392         0.658582        -0.754213
 H        -0.209090        -1.061476        -0.752882
 H        -0.479353        -0.174647         0.859511
 H         2.779341         1.549582        -0.193894
 H         1.958944        -0.864796         2.155202
 H         3.252574        -2.783863         1.123392
 H         2.754550        -2.546791        -1.648752
 H         4.349914         0.049004        -0.557371
 H         4.196698        -0.448545        -2.432858
 H         1.400038         0.522363        -2.482091
