19
Iteration:  1265
 C        -0.078131        -0.065326         0.044432
 C         1.568029         0.003370        -0.009883
 O         1.772477         1.332608         0.234531
 C         2.125413        -0.915011         1.114354
 C         2.836535        -1.896170         0.545294
 C         2.976551        -1.873114        -0.990165
 C         3.752074        -0.552332        -1.406755
 C         2.313057        -0.494188        -1.308326
 O         1.654932        -0.501908        -2.531631
 H        -0.363185         0.825146        -0.562104
 H        -0.461310        -1.053545        -0.379080
 H        -0.331663        -0.010032         1.125930
 H         2.724029         1.415117         0.430183
 H         2.100295        -0.649189         2.237233
 H         3.634498        -2.572703         1.022706
 H         2.878133        -2.664070        -1.750146
 H         4.417189        -0.144109        -0.615503
 H         4.034943        -0.526152        -2.498986
 H         1.715096         0.407060        -2.909812
