19
Iteration:  2960charge 0 multiplicity 1
 C         0.060880        -0.203436        -0.172086
 C         1.526728        -0.013304         0.069559
 O         1.799971         1.408409         0.352268
 C         2.248768        -0.884058         1.103780
 C         3.064861        -1.826175         0.549442
 C         2.960218        -1.776875        -0.947130
 C         3.755357        -0.575331        -1.537220
 C         2.213413        -0.557420        -1.269371
 O         1.416198        -0.478996        -2.452568
 H        -0.321275         0.468381        -0.912775
 H        -0.269703        -1.272335        -0.464555
 H        -0.579480        -0.116935         0.767647
 H         2.805772         1.434579         0.381510
 H         1.973119        -0.756630         2.170181
 H         3.509765        -2.732039         0.941182
 H         2.586054        -2.702770        -1.377385
 H         4.441478        -0.204487        -0.852839
 H         3.959872        -0.556950        -2.642084
 H         1.583398         0.422048        -2.746733
