19
Iteration:  1176charge 0 multiplicity 1
 C        -0.007413        -0.029832        -0.125750
 C         1.471885         0.043096         0.023465
 O         1.880179         1.402876         0.315573
 C         2.051532        -1.086129         1.066619
 C         3.063641        -1.905314         0.593026
 C         3.022722        -1.792122        -0.956957
 C         3.776870        -0.485849        -1.423546
 C         2.183026        -0.630032        -1.278867
 O         1.517390        -0.508084        -2.538463
 H        -0.329513         0.653881        -0.922889
 H        -0.510173        -0.953615        -0.101299
 H        -0.566626         0.453538         0.768926
 H         2.787959         1.426085         0.556044
 H         1.678972        -1.060535         2.058634
 H         3.536717        -2.641329         1.158537
 H         3.127572        -2.780647        -1.391241
 H         4.487627        -0.000089        -0.769026
 H         4.049008        -0.352517        -2.467386
 H         1.741097         0.378456        -2.883947
