19
Iteration:   897
 C         0.033195        -0.004755         0.025909
 C         1.573841        -0.019294        -0.077047
 O         1.916172         1.413844         0.218339
 C         2.079063        -0.910193         0.997222
 C         2.725892        -1.971957         0.484857
 C         3.076841        -1.798876        -0.893333
 C         3.680528        -0.389512        -1.344062
 C         2.301690        -0.576541        -1.276078
 O         1.619575        -0.656134        -2.532378
 H        -0.300173         0.420822         1.047778
 H        -0.294370         0.777637        -0.778065
 H        -0.619921        -0.912378        -0.119087
 H         2.890678         1.441825         0.576141
 H         1.784370        -0.804512         2.058589
 H         3.011072        -2.813951         1.137969
 H         3.265972        -2.591996        -1.623123
 H         4.190882         0.184601        -0.503825
 H         4.272930        -0.619325        -2.197816
 H         0.694775        -0.346127        -2.377466
