19
Iteration:  4582charge 0 multiplicity 1
 C        -0.054085         0.106559        -0.062750
 C         1.476015        -0.111358         0.050406
 O         2.110631         1.283467         0.357367
 C         2.067823        -1.240246         1.013318
 C         3.064948        -1.849399         0.503296
 C         3.161716        -1.649625        -1.024730
 C         3.620570        -0.273267        -1.520419
 C         2.171563        -0.568247        -1.299649
 O         1.313216        -0.599727        -2.402183
 H        -0.453368        -0.933491        -0.100271
 H        -0.247159         0.698406         0.901264
 H        -0.345178         0.537487        -1.015991
 H         2.604537         1.063176         1.152299
 H         1.687616        -1.266072         2.054721
 H         3.708023        -2.442372         1.145192
 H         3.057410        -2.512721        -1.636260
 H         4.155520         0.370863        -0.823380
 H         4.228016        -0.234520        -2.472857
 H         1.830138        -0.389382        -3.182792
