19
Iteration:  1991charge 0 multiplicity 1
 C         0.007196        -0.041565         0.043543
 C         1.561181        -0.029189         0.025179
 O         1.967872         1.319791         0.090323
 C         2.268862        -0.906403         1.130853
 C         2.888472        -1.990343         0.495761
 C         3.071651        -1.803236        -1.014013
 C         3.624064        -0.440772        -1.345977
 C         2.126634        -0.666276        -1.226359
 O         1.439619        -0.320363        -2.472637
 H        -0.620164         0.624619        -0.498851
 H        -0.297006        -1.110328        -0.230514
 H        -0.350642         0.095952         1.021522
 H         2.950666         1.294556         0.423875
 H         1.924529        -0.936031         2.113501
 H         3.322772        -2.799450         1.084536
 H         3.042489        -2.777761        -1.560795
 H         4.317014         0.114556        -0.763768
 H         3.865617        -0.200028        -2.441436
 H         1.859116        -0.943833        -3.125379
