19
Iteration:  1784charge 0 multiplicity 1
 C         0.091186        -0.152884        -0.072867
 C         1.582704        -0.064091         0.032897
 O         2.042449         1.333710         0.240576
 C         2.128535        -0.925799         1.122111
 C         2.873023        -1.952769         0.531265
 C         3.043726        -1.786495        -0.905233
 C         3.707062        -0.514250        -1.470022
 C         2.236199        -0.503251        -1.304727
 O         1.334832        -0.381899        -2.396083
 H        -0.181898         0.635804        -0.761819
 H        -0.150788        -1.125182        -0.549759
 H        -0.406293         0.137386         0.872289
 H         1.433915         1.699989        -0.472969
 H         1.938770        -0.829477         2.246495
 H         3.498414        -2.714563         1.010154
 H         3.004874        -2.586853        -1.630874
 H         4.063064        -0.017455        -0.558584
 H         4.202221        -0.626635        -2.400969
 H         1.728746        -0.195691        -3.239437
