19
Iteration:  4072charge 0 multiplicity 1
 C         0.037216        -0.009791        -0.131338
 C         1.521975        -0.072380         0.015988
 O         2.042704         1.238067         0.352799
 C         2.036662        -1.118035         1.045858
 C         2.988102        -1.863726         0.482735
 C         3.085610        -1.637809        -0.967520
 C         3.647848        -0.233504        -1.447541
 C         2.162483        -0.543347        -1.256469
 O         1.418894        -0.676033        -2.410180
 H        -0.280905        -0.026415        -1.119925
 H        -0.372813        -0.871819         0.523993
 H        -0.356376         0.908291         0.281188
 H         2.967012         1.260218        -0.097086
 H         1.979045        -0.931967         2.096909
 H         3.571892        -2.570663         1.029727
 H         3.079965        -2.394919        -1.708983
 H         4.173307         0.136882        -0.650471
 H         3.924520        -0.231003        -2.443580
 H         1.282140         0.269729        -2.670408
