19
Iteration:  2041
 C         0.084805        -0.094062        -0.076578
 C         1.584765         0.002796         0.064187
 O         1.833591         1.435985         0.512846
 C         2.198464        -0.878047         0.948550
 C         2.900653        -1.864689         0.502547
 C         3.001852        -1.795314        -0.976227
 C         3.788774        -0.696509        -1.579928
 C         2.285450        -0.487202        -1.330679
 O         1.375960        -0.464408        -2.426698
 H        -0.221805         0.593536        -0.897756
 H        -0.190148        -1.097093        -0.370560
 H        -0.614500         0.294591         0.770748
 H         2.769782         1.595289         0.349551
 H         1.852858        -0.738396         2.018601
 H         3.392838        -2.611959         1.099420
 H         2.874013        -2.706907        -1.584778
 H         4.519800        -0.215541        -0.871861
 H         4.087203        -0.699642        -2.608186
 H         1.150781        -1.381201        -2.679931
