19
Iteration:  3723
 C        -0.064341         0.071217        -0.143324
 C         1.496142        -0.106008        -0.020963
 O         1.968561         1.342264         0.395579
 C         2.016678        -1.110581         1.011415
 C         3.055504        -1.904513         0.532406
 C         3.152399        -1.676145        -0.942606
 C         3.808179        -0.321244        -1.465071
 C         2.262343        -0.529967        -1.310013
 O         1.288838        -0.709003        -2.410187
 H        -0.287014         0.527894        -1.091300
 H        -0.453001        -1.025598        -0.083094
 H        -0.275011         0.757045         0.639828
 H         2.781937         1.153304         0.816933
 H         1.756019        -1.033038         2.092229
 H         3.784673        -2.441758         1.112693
 H         3.282603        -2.554846        -1.612578
 H         4.261646         0.447396        -0.831763
 H         3.923171        -0.292811        -2.520378
 H         1.490720         0.055678        -3.008422
