19
Iteration:  2741charge 0 multiplicity 1
 C        -0.106980        -0.211778         0.168146
 C         1.494320        -0.096181         0.068520
 O         1.966767         1.439051        -0.038257
 C         2.240863        -0.990179         1.032250
 C         3.001665        -1.950639         0.542504
 C         2.975776        -1.799166        -0.952046
 C         3.693474        -0.512081        -1.374429
 C         2.086144        -0.630812        -1.232800
 O         1.557698        -0.289115        -2.501394
 H        -0.665176         0.790912         0.025556
 H        -0.416775        -0.879186        -0.564832
 H        -0.288871        -0.484959         1.245940
 H         2.949773         1.268034        -0.085775
 H         2.193489        -0.748970         2.106543
 H         3.419838        -2.685886         1.183449
 H         3.087407        -2.707660        -1.514996
 H         4.272055        -0.030440        -0.671237
 H         3.926995        -0.520248        -2.476170
 H         1.618800         0.701948        -2.434215
