19
Iteration:  1552
 C         0.066029        -0.102545        -0.003384
 C         1.627974        -0.022008         0.050556
 O         1.963355         1.345940         0.094088
 C         2.199545        -0.998578         1.085923
 C         2.784558        -2.050789         0.484191
 C         3.004446        -1.750394        -0.960543
 C         3.755463        -0.455175        -1.326680
 C         2.213811        -0.557712        -1.197743
 O         1.417538        -0.365598        -2.457694
 H        -0.330323         0.240509        -1.035765
 H        -0.291681        -1.184816         0.152966
 H        -0.407149         0.476929         0.883379
 H         1.286257         1.930012        -0.256102
 H         1.882687        -1.132337         2.207617
 H         3.444263        -2.825053         0.970308
 H         2.954820        -2.655099        -1.572957
 H         4.473359        -0.108473        -0.468622
 H         4.120957        -0.357340        -2.316526
 H         2.066946        -0.011101        -3.116597
