19
Iteration:  1520charge 0 multiplicity 1
 C        -0.020490        -0.124711         0.103715
 C         1.544274        -0.026449        -0.056225
 O         2.029301         1.276820         0.246898
 C         2.196110        -0.865593         1.038726
 C         2.827084        -1.925857         0.545121
 C         3.060215        -1.856373        -0.973213
 C         3.681705        -0.533009        -1.326891
 C         2.139920        -0.613776        -1.359854
 O         1.515428        -0.344846        -2.572532
 H        -0.640156         0.542668        -0.542474
 H        -0.415582        -1.121355        -0.022520
 H        -0.295872         0.009254         1.184497
 H         1.813510         1.979751        -0.467895
 H         1.904151        -0.944195         2.150486
 H         3.494337        -2.564149         1.186760
 H         3.107754        -2.868322        -1.351487
 H         4.250594        -0.031514        -0.469979
 H         4.171679        -0.304823        -2.234041
 H         1.866457         0.545752        -2.670611
