19
Iteration:  4956charge 0 multiplicity 1
 C        -0.000274        -0.088146         0.081770
 C         1.568187        -0.047250        -0.006103
 O         1.894781         1.280646         0.238970
 C         2.172015        -0.986640         1.029275
 C         2.945369        -1.893671         0.463769
 C         2.990608        -1.733970        -0.984474
 C         3.761895        -0.359836        -1.402796
 C         2.250977        -0.531411        -1.310068
 O         1.424216        -0.587876        -2.455327
 H        -0.509238         0.534038        -0.627648
 H        -0.391868        -1.046357         0.154016
 H        -0.100746         0.400378         1.065190
 H         2.891945         1.406781        -0.084140
 H         1.834651        -0.841253         2.095626
 H         3.541068        -2.675744         0.930933
 H         2.905212        -2.557444        -1.665129
 H         4.324428         0.191973        -0.612330
 H         4.151003        -0.355094        -2.431915
 H         1.095831         0.350234        -2.604782
