19
Iteration:  3860charge 0 multiplicity 1
 C         0.175790        -0.427521        -0.086066
 C         1.601925         0.033032        -0.007430
 O         1.899810         1.390872         0.183393
 C         2.261423        -0.854850         1.037153
 C         2.894131        -1.855746         0.530486
 C         2.822580        -1.854656        -1.018295
 C         3.721932        -0.602180        -1.416657
 C         2.265907        -0.505981        -1.196512
 O         1.446143        -0.295121        -2.339968
 H        -0.455378        -0.433194        -1.009286
 H         0.121419        -1.359058         0.278576
 H        -0.501752         0.082282         0.640502
 H         1.046809         1.948469         0.182775
 H         2.375402        -0.673895         2.138646
 H         3.390712        -2.673915         1.116502
 H         2.683448        -2.657566        -1.765443
 H         4.451269        -0.091923        -0.672886
 H         3.801872        -0.586018        -2.567413
 H         1.746286         0.543536        -2.729169
