19
Iteration:  1484
 C         0.043563        -0.092732        -0.050713
 C         1.552180         0.073298        -0.003376
 O         1.888167         1.369091         0.437690
 C         2.212553        -0.969638         1.130415
 C         2.886269        -1.964710         0.486912
 C         2.887066        -1.777703        -0.951105
 C         3.769250        -0.588532        -1.488582
 C         2.270627        -0.449373        -1.345555
 O         1.541957        -0.556442        -2.494525
 H        -0.408301         0.850157        -0.524497
 H        -0.229472        -1.043432        -0.723572
 H        -0.206147         0.036333         1.011592
 H         1.608957         2.096482        -0.260419
 H         1.923320        -1.099658         2.139540
 H         3.530092        -2.490914         1.128157
 H         2.587490        -2.659688        -1.543696
 H         4.422243        -0.332780        -0.687982
 H         4.030472        -0.509826        -2.639255
 H         1.521249         0.188750        -3.099522
