19
Iteration:  1975
 C        -0.025057        -0.045598         0.248558
 C         1.516023        -0.046333         0.001287
 O         1.944160         1.371557         0.081447
 C         2.156173        -1.013900         1.005773
 C         2.944864        -1.925509         0.490306
 C         3.003365        -1.859941        -0.974094
 C         3.655026        -0.425172        -1.332173
 C         2.175646        -0.603708        -1.339172
 O         1.499350        -0.403179        -2.491222
 H        -0.358391         0.815401        -0.411405
 H        -0.465570        -0.947949        -0.093398
 H        -0.234231         0.266894         1.355460
 H         2.923429         1.368906         0.162887
 H         2.143735        -0.696010         2.095006
 H         3.367510        -2.791814         1.028975
 H         3.265883        -2.629807        -1.666108
 H         4.093612        -0.094078        -0.362134
 H         4.137432        -0.293527        -2.267794
 H         2.023267        -0.637940        -3.281598
