19
Iteration:  4052charge 0 multiplicity 1
 C        -0.070239         0.111573        -0.030801
 C         1.540485        -0.064323         0.084316
 O         2.042839         1.249689         0.463911
 C         2.093267        -1.089446         1.084285
 C         2.996488        -1.942586         0.529734
 C         3.151306        -1.625608        -0.968486
 C         3.644708        -0.226108        -1.461309
 C         2.167479        -0.529581        -1.372397
 O         1.418371        -0.806336        -2.574684
 H        -0.277733         0.415896        -1.065173
 H        -0.762971        -0.717912         0.236618
 H        -0.432555         0.998128         0.577703
 H         2.930131         1.380673        -0.009006
 H         1.623692        -1.197209         2.036719
 H         3.647036        -2.645265         0.898688
 H         3.458028        -2.386605        -1.616855
 H         4.034432         0.534885        -0.806116
 H         3.931216        -0.289210        -2.461533
 H         1.303138        -0.001888        -3.175355
