19
Iteration:  1439
 C         0.082649        -0.076294        -0.174916
 C         1.603042        -0.006866        -0.032009
 O         2.000543         1.290948         0.433263
 C         2.160017        -0.898025         1.056945
 C         2.848141        -1.995311         0.594026
 C         3.005666        -1.781387        -0.944030
 C         3.825066        -0.474823        -1.461381
 C         2.285344        -0.525869        -1.317840
 O         1.285539        -0.496366        -2.466155
 H        -0.404117         0.429476        -1.040095
 H        -0.089198        -1.205729        -0.354353
 H        -0.367557         0.343655         0.735381
 H         1.217507         1.968372         0.395684
 H         1.688140        -0.640762         1.974128
 H         3.324880        -2.769057         1.194288
 H         3.098111        -2.668008        -1.564696
 H         4.472608         0.120821        -0.796952
 H         4.125052        -0.601915        -2.515620
 H         1.755725         0.216497        -2.925856
