19
Iteration:  1462charge 0 multiplicity 1
 C         0.097866        -0.104332        -0.214329
 C         1.683672         0.049269         0.098312
 O         1.904251         1.448893         0.538707
 C         2.153977        -0.936850         1.060443
 C         2.855186        -1.953469         0.445303
 C         3.019365        -1.781067        -0.990840
 C         3.702510        -0.603077        -1.497228
 C         2.265042        -0.473525        -1.296354
 O         1.423595        -0.605493        -2.415728
 H        -0.207536         0.688611        -0.974665
 H        -0.015539        -1.128629        -0.786598
 H        -0.471803         0.132065         0.669706
 H         1.245991         1.846586         0.026932
 H         2.176131        -0.557727         2.028845
 H         3.027480        -2.822660         1.008388
 H         2.843392        -2.664856        -1.608904
 H         4.235339         0.040104        -0.837535
 H         4.027103        -0.795276        -2.601664
 H         1.682648         0.210194        -2.920617
