19
Iteration:   554charge 0 multiplicity 1
 C         0.067829        -0.116082        -0.196684
 C         1.570817        -0.033996         0.045027
 O         1.975170         1.397910         0.398421
 C         2.093664        -0.953048         1.085628
 C         2.814224        -1.954815         0.555840
 C         3.129307        -1.785985        -0.857210
 C         3.709934        -0.494666        -1.381100
 C         2.225554        -0.558391        -1.355190
 O         1.473084        -0.427605        -2.549826
 H        -0.391954         0.584354         0.577367
 H        -0.295430         0.239097        -1.185886
 H        -0.350646        -1.036286         0.111288
 H         1.826246         1.950710        -0.343522
 H         1.955434        -0.799398         2.108731
 H         3.293237        -2.701869         1.160487
 H         3.356459        -2.571890        -1.571233
 H         4.263266         0.156524        -0.683240
 H         3.998533        -0.554543        -2.432439
 H         0.958271        -1.213394        -2.849896
