19
Iteration:  3986charge 0 multiplicity 1
 C        -0.026628        -0.083851        -0.137837
 C         1.542738        -0.065989         0.090677
 O         2.083062         1.326464         0.296027
 C         2.150602        -1.009014         1.117907
 C         2.941782        -1.828897         0.527040
 C         3.120182        -1.684168        -0.987847
 C         3.660710        -0.357281        -1.500284
 C         2.203492        -0.589847        -1.306110
 O         1.353817        -0.652585        -2.450189
 H        -0.366622         0.929811        -0.258903
 H        -0.335391        -0.487862        -1.200947
 H        -0.614717        -0.586676         0.668811
 H         2.328805         1.411975         1.187723
 H         1.877751        -0.990297         2.196526
 H         3.585461        -2.624887         1.039172
 H         3.336908        -2.537767        -1.652094
 H         4.049811         0.408183        -0.860188
 H         4.024469        -0.336724        -2.506841
 H         1.127352         0.260918        -2.572459
