19
Iteration:  2591charge 0 multiplicity 1
 C         0.019154        -0.029583         0.019495
 C         1.582255        -0.076775         0.090861
 O         1.988359         1.389829         0.043359
 C         2.153454        -1.040459         1.106851
 C         2.877164        -2.067262         0.567065
 C         3.042524        -1.691869        -0.942594
 C         3.713774        -0.320863        -1.415115
 C         2.227773        -0.547813        -1.231792
 O         1.407188        -0.562981        -2.467982
 H        -0.125777         0.950085        -0.428986
 H        -0.327136        -0.864053        -0.536498
 H        -0.660011        -0.015745         0.916299
 H         2.857182         1.448922        -0.254574
 H         1.910505        -1.109339         2.201455
 H         3.225503        -3.005314         0.989154
 H         3.204367        -2.466386        -1.612592
 H         4.317616         0.133713        -0.677994
 H         4.172245        -0.438399        -2.425287
 H         0.818729         0.238935        -2.498909
