19
Iteration:  1307
 C         0.121467        -0.187436        -0.265993
 C         1.583485        -0.016600         0.022729
 O         1.869430         1.395681         0.290184
 C         2.177261        -0.932539         1.127753
 C         2.946147        -1.880942         0.635823
 C         2.956824        -1.849209        -0.917158
 C         3.655943        -0.661448        -1.466974
 C         2.260613        -0.487104        -1.342098
 O         1.428057        -0.366431        -2.467218
 H        -0.312343         0.422386        -1.069872
 H        -0.091600        -1.233101        -0.558279
 H        -0.296986         0.054868         0.750283
 H         2.113207         1.527660         1.279066
 H         1.961301        -0.666383         2.212135
 H         3.550390        -2.463500         1.391383
 H         2.954688        -2.802478        -1.447996
 H         4.202855        -0.105798        -0.735664
 H         4.172551        -0.678914        -2.429084
 H         1.675194         0.472538        -2.875332
