19
Iteration:  2476charge 0 multiplicity 1
 C         0.088680        -0.246095         0.004403
 C         1.598012        -0.038804         0.031668
 O         1.858355         1.404419         0.170761
 C         2.257918        -0.842110         1.088454
 C         2.835772        -1.922208         0.518667
 C         2.928692        -1.823173        -0.913658
 C         3.847829        -0.693888        -1.410544
 C         2.276075        -0.520469        -1.304366
 O         1.293398        -0.307566        -2.439704
 H        -0.162324        -0.032972        -0.975958
 H        -0.030827        -1.323140         0.322572
 H        -0.482988         0.314257         0.706801
 H         2.738887         1.468447        -0.088358
 H         1.905680        -0.688653         2.087213
 H         3.434548        -2.574072         1.079175
 H         2.901488        -2.595773        -1.658275
 H         4.494601        -0.059604        -0.813246
 H         4.275168        -0.750453        -2.484163
 H         1.604468         0.547768        -2.828206
