19
Iteration:  2509charge 0 multiplicity 1
 C         0.075511        -0.175581        -0.102890
 C         1.584574        -0.028520         0.066687
 O         1.785275         1.421317         0.231978
 C         2.297494        -0.840626         1.101613
 C         2.966713        -1.913351         0.626252
 C         2.909594        -1.889403        -0.923248
 C         3.675581        -0.674594        -1.573025
 C         2.223582        -0.562567        -1.232960
 O         1.458986        -0.308314        -2.422882
 H        -0.233492         0.162310        -1.055750
 H        -0.142771        -1.301294        -0.219598
 H        -0.385951         0.337288         0.710704
 H         2.722396         1.514114         0.550347
 H         1.974056        -0.828940         2.087946
 H         3.672346        -2.547311         1.059669
 H         2.548701        -2.755141        -1.527896
 H         4.410803        -0.036098        -1.113435
 H         3.760125        -0.642011        -2.742845
 H         2.074845         0.121450        -3.018390
