19
Iteration:   420charge 0 multiplicity 1
 C         0.102963        -0.166295        -0.121671
 C         1.587240         0.027551         0.048377
 O         1.799350         1.448527         0.237486
 C         2.136415        -0.934105         1.088117
 C         2.739791        -2.023640         0.543448
 C         2.984779        -1.823933        -0.881545
 C         3.767482        -0.451709        -1.442135
 C         2.306530        -0.484562        -1.253674
 O         1.520412        -0.533383        -2.433132
 H        -0.342116        -0.617368         0.755354
 H        -0.489287         0.741459        -0.163731
 H        -0.220594        -0.825949        -1.013179
 H         2.577926         1.538295        -0.254306
 H         2.070723        -0.856970         2.203708
 H         3.426692        -2.721861         1.106072
 H         2.841692        -2.492367        -1.754699
 H         4.345972         0.101158        -0.694831
 H         4.303493        -0.459103        -2.486928
 H         1.973257         0.041499        -3.111705
