19
Iteration:  4244
 C         0.016648        -0.126544         0.088245
 C         1.561154        -0.083452         0.017518
 O         1.918632         1.287108         0.370276
 C         2.136346        -0.943542         1.026825
 C         2.954904        -1.937607         0.450435
 C         3.055937        -1.765566        -0.998081
 C         3.651281        -0.403617        -1.393545
 C         2.182085        -0.536842        -1.362942
 O         1.461345        -0.474149        -2.570791
 H        -0.320257        -0.868143         0.763600
 H        -0.357164         0.875034         0.489793
 H        -0.363319        -0.227750        -0.875161
 H         2.854478         1.428848         0.418253
 H         1.953885        -0.720346         2.123340
 H         3.551889        -2.605582         1.057499
 H         3.112868        -2.619815        -1.693634
 H         4.114734         0.071136        -0.567998
 H         4.179844        -0.370320        -2.318921
 H         1.601510         0.398472        -2.916997
