19
Iteration:   517
 C         0.099991        -0.159951        -0.104414
 C         1.577971         0.049233        -0.047785
 O         1.857184         1.436155         0.330852
 C         2.112248        -0.938549         1.044688
 C         2.770925        -1.927410         0.498844
 C         2.944089        -1.733382        -1.005262
 C         3.788819        -0.568182        -1.272888
 C         2.238623        -0.468687        -1.260581
 O         1.527179        -0.519977        -2.481880
 H        -0.108615        -0.337259         0.909038
 H        -0.386302         0.771460        -0.310154
 H        -0.307423        -0.934200        -0.807938
 H         2.574610         1.506243        -0.332443
 H         2.190441        -0.676711         2.158248
 H         3.472211        -2.604707         1.052110
 H         2.932963        -2.585078        -1.705320
 H         4.423705         0.061593        -0.617718
 H         4.164655        -0.580873        -2.322340
 H         1.608709        -1.496061        -2.616980
