19
Iteration:  3796charge 0 multiplicity 1
 C        -0.013777        -0.126145         0.060088
 C         1.532616        -0.055904         0.011101
 O         2.004915         1.343452         0.290294
 C         2.177112        -0.898515         1.062259
 C         2.922147        -1.796841         0.460661
 C         2.985531        -1.777159        -1.059278
 C         3.745368        -0.446813        -1.358978
 C         2.171548        -0.592300        -1.317095
 O         1.498975        -0.630303        -2.519052
 H        -0.323770         0.992216        -0.136510
 H        -0.395426        -0.785229        -0.661428
 H        -0.214571        -0.369534         1.122709
 H         1.206241         1.809879         0.705914
 H         1.856058        -0.901732         2.100687
 H         3.559453        -2.426344         1.140858
 H         2.956025        -2.675988        -1.696424
 H         4.352085         0.089300        -0.566989
 H         4.070432        -0.237441        -2.438224
 H         1.745560         0.217490        -3.003630
