19
Iteration:    85
 C         0.049307        -0.095955        -0.156653
 C         1.567741        -0.064709        -0.027864
 O         2.037559         1.309719         0.147932
 C         2.169386        -0.932440         1.088688
 C         2.908655        -1.922867         0.515006
 C         3.095920        -1.800576        -0.939579
 C         3.735029        -0.499430        -1.284862
 C         2.200665        -0.542109        -1.290623
 O         1.302185        -0.430319        -2.380155
 H        -0.349734         0.424234         0.691751
 H        -0.197999         0.417343        -1.082013
 H        -0.309327        -1.202264        -0.043103
 H         1.340317         1.880543         0.646779
 H         1.649827        -1.044141         2.039944
 H         3.375704        -2.759517         0.993046
 H         3.161802        -2.653948        -1.587304
 H         4.162040         0.064065        -0.441029
 H         4.345334        -0.331436        -2.195530
 H         1.783089         0.237882        -2.940994
