19
Iteration:  1831charge 0 multiplicity 1
 C        -0.001146        -0.107339         0.227149
 C         1.597572        -0.013422         0.017133
 O         1.879881         1.384346         0.214605
 C         2.164621        -0.969063         1.079550
 C         2.869545        -1.898901         0.522049
 C         2.930038        -1.820287        -0.998463
 C         3.768338        -0.493523        -1.362919
 C         2.174992        -0.467405        -1.312549
 O         1.501392        -0.511799        -2.612932
 H        -0.397939         0.921455         0.121651
 H        -0.217022        -0.773242        -0.658591
 H        -0.290878        -0.445908         1.196378
 H         2.695746         1.571320        -0.381118
 H         2.329422        -0.826890         2.128089
 H         3.179124        -2.845039         1.002354
 H         2.967714        -2.606958        -1.781769
 H         4.285533        -0.025150        -0.517902
 H         4.086370        -0.452813        -2.419203
 H         2.317962        -0.425591        -3.163300
