19
Iteration:  2694charge 0 multiplicity 1
 C         0.078798        -0.156760         0.046517
 C         1.605381         0.025066        -0.050638
 O         1.803606         1.394925         0.289590
 C         2.281584        -0.879738         1.052230
 C         2.808892        -2.019374         0.486647
 C         2.961132        -1.746181        -0.966543
 C         3.842700        -0.549618        -1.427926
 C         2.287067        -0.473814        -1.350464
 O         1.342688        -0.523971        -2.418157
 H        -0.270100         0.349383        -0.920695
 H        -0.174389        -1.269037        -0.175816
 H        -0.309305         0.413942         0.872800
 H         2.833271         1.489925         0.319347
 H         1.981423        -0.658748         2.102503
 H         3.479284        -2.787938         0.950405
 H         2.919462        -2.548789        -1.716635
 H         4.455544        -0.068014        -0.600263
 H         4.276234        -0.828730        -2.344931
 H         1.185752         0.387662        -2.688659
