19
Iteration:  2671
 C         0.089226        -0.129494         0.045800
 C         1.564492         0.106508         0.019894
 O         1.830988         1.521141         0.476233
 C         2.124206        -0.921625         1.051275
 C         2.954957        -1.867851         0.471373
 C         2.964725        -1.862869        -1.000528
 C         3.711958        -0.568826        -1.605378
 C         2.233476        -0.555620        -1.318109
 O         1.520340        -0.629200        -2.501239
 H        -0.165164         0.070879        -1.001752
 H        -0.162517        -1.282264         0.143618
 H        -0.351550         0.639847         0.676661
 H         2.654498         1.455660         0.917336
 H         2.142127        -0.795755         2.122444
 H         3.136757        -2.863636         0.942911
 H         2.727148        -2.707347        -1.729416
 H         4.419389        -0.171391        -0.786174
 H         3.919567        -0.427254        -2.626651
 H         1.453862         0.220157        -3.009354
