19
Iteration:   123
 C        -0.036699        -0.141883        -0.006210
 C         1.518914        -0.021201         0.046200
 O         1.912508         1.411120         0.169931
 C         2.212324        -0.943773         1.123376
 C         2.861139        -1.934756         0.572452
 C         2.980699        -1.737282        -0.891736
 C         3.739685        -0.530315        -1.414294
 C         2.214989        -0.526823        -1.303097
 O         1.605191        -0.484958        -2.592130
 H        -0.351222        -0.443344         1.030091
 H        -0.506122         0.848453        -0.216658
 H        -0.433016        -0.769888        -0.723266
 H         2.794870         1.254218         0.602604
 H         1.696371        -0.940810         2.088883
 H         3.308360        -2.835023         1.065416
 H         3.053056        -2.697165        -1.450418
 H         4.286774         0.010763        -0.680141
 H         4.116008        -0.618129        -2.471913
 H         0.979255         0.218637        -2.799767
