19
Iteration:   815
 C        -0.083737        -0.079099        -0.116869
 C         1.524285        -0.019992        -0.054738
 O         1.878203         1.380516         0.265339
 C         2.168958        -0.913132         1.167759
 C         2.979338        -1.857776         0.583522
 C         2.888933        -1.850436        -0.871656
 C         3.696159        -0.692871        -1.315104
 C         2.224337        -0.540421        -1.297694
 O         1.631635        -0.332435        -2.604743
 H        -0.300057         0.268519         0.890059
 H        -0.539067         0.596604        -0.840419
 H        -0.396876        -1.129021        -0.183968
 H         2.661365         1.569898        -0.313297
 H         2.076464        -0.648983         2.230588
 H         3.643984        -2.563421         1.028715
 H         3.153341        -2.732879        -1.445822
 H         4.224882        -0.017748        -0.547026
 H         4.096566        -0.652360        -2.273324
 H         1.554082        -1.195710        -3.039886
