19
Iteration:  2676
 C         0.071767        -0.145359         0.009344
 C         1.604370         0.102693         0.033753
 O         1.818346         1.508324         0.449366
 C         2.159186        -0.914110         1.012912
 C         2.911182        -1.881709         0.447533
 C         2.989549        -1.858005        -0.997275
 C         3.743561        -0.605240        -1.537372
 C         2.229432        -0.525952        -1.319289
 O         1.478572        -0.612782        -2.478570
 H        -0.377235         0.075521        -1.017013
 H        -0.107995        -1.131849         0.234901
 H        -0.307658         0.515459         0.822040
 H         2.751767         1.606010         0.898646
 H         2.140990        -0.846734         2.132882
 H         3.107413        -2.793928         0.984313
 H         2.869179        -2.627321        -1.693060
 H         4.410211        -0.153243        -0.878495
 H         4.026120        -0.430114        -2.625988
 H         1.338432         0.200441        -2.966557
