19
Iteration:  1775
 C         0.086499        -0.100479        -0.155518
 C         1.588464        -0.062225         0.026564
 O         2.022496         1.329487         0.242505
 C         2.164704        -0.985555         1.165139
 C         2.884033        -1.956931         0.577506
 C         2.982002        -1.750179        -0.922768
 C         3.712449        -0.524671        -1.536534
 C         2.218319        -0.548199        -1.278440
 O         1.352928        -0.369843        -2.360221
 H        -0.245684         0.417306        -1.048318
 H        -0.218963        -1.204382        -0.218556
 H        -0.401986         0.179687         0.761106
 H         1.340370         1.951184        -0.154813
 H         1.782496        -1.041640         2.221296
 H         3.644437        -2.501287         1.039180
 H         2.980017        -2.649835        -1.513472
 H         4.454317         0.127781        -0.983181
 H         4.160062        -0.533860        -2.455726
 H         1.974846        -0.149977        -3.048002
