19
Iteration:  2872
 C        -0.030603         0.055178         0.141741
 C         1.457098        -0.138220         0.035127
 O         1.871030         1.238208         0.154805
 C         2.182584        -1.010395         1.082665
 C         3.060616        -1.892398         0.551060
 C         3.068777        -1.775763        -0.986375
 C         3.574124        -0.372244        -1.409857
 C         2.169286        -0.576844        -1.310816
 O         1.562872        -0.503632        -2.543789
 H        -0.248259         0.549027        -0.833849
 H        -0.492474        -0.928337         0.282498
 H        -0.226283         0.696763         1.087604
 H         2.884480         1.122110         0.290435
 H         1.781121        -0.903429         2.060384
 H         3.766379        -2.556033         1.100766
 H         3.153648        -2.652982        -1.734025
 H         4.250138         0.158549        -0.690201
 H         3.903150        -0.257151        -2.375881
 H         1.611824         0.346680        -2.994319
