19
Iteration:  2838charge 0 multiplicity 1
 C         0.036214        -0.095244        -0.049553
 C         1.541602        -0.031754        -0.003925
 O         1.885791         1.362821         0.356957
 C         2.129016        -0.921375         1.031396
 C         3.003209        -1.915574         0.593834
 C         3.067314        -1.831958        -0.948705
 C         3.754809        -0.509848        -1.545311
 C         2.264064        -0.521770        -1.342119
 O         1.313227        -0.480721        -2.441725
 H        -0.450283         0.145524        -1.090332
 H        -0.162325        -1.139144         0.026638
 H        -0.564135         0.466951         0.735177
 H         2.831951         1.249665         0.740513
 H         1.814282        -0.744568         2.043569
 H         3.763519        -2.511580         1.129345
 H         3.131770        -2.705902        -1.649570
 H         4.296151         0.133196        -0.835259
 H         4.219594        -0.661869        -2.496132
 H         1.485849         0.393430        -2.855200
