19
Iteration:  3253charge 0 multiplicity 1
 C         0.104039        -0.235497        -0.104404
 C         1.557753        -0.008709         0.141905
 O         1.831334         1.403626         0.232907
 C         2.260293        -0.884305         1.100365
 C         3.011260        -1.866626         0.493273
 C         2.898921        -1.792528        -0.966541
 C         3.673521        -0.635318        -1.561141
 C         2.251379        -0.499220        -1.233724
 O         1.475999        -0.427418        -2.418824
 H        -0.206561         0.283174        -1.054606
 H        -0.112815        -1.360122        -0.245939
 H        -0.587349         0.125118         0.724391
 H         1.105561         1.809841         0.795178
 H         2.280590        -0.762703         2.194644
 H         3.519372        -2.571860         1.243982
 H         2.654371        -2.772561        -1.442767
 H         4.362840        -0.023273        -0.874983
 H         4.100228        -0.585824        -2.561538
 H         1.996267         0.118337        -3.022173
