19
Iteration:  3590
 C         0.101643        -0.318355         0.093033
 C         1.549324         0.009411        -0.037315
 O         1.754922         1.361977         0.149902
 C         2.286786        -0.828321         1.020751
 C         2.919239        -1.855463         0.510294
 C         2.873702        -1.894828        -0.953113
 C         3.736437        -0.634449        -1.378687
 C         2.236259        -0.522151        -1.351865
 O         1.545735        -0.297126        -2.476792
 H        -0.599443         0.125951        -0.689075
 H        -0.142367        -1.341757         0.181469
 H        -0.264732         0.000162         1.127495
 H         1.872250         1.545476         1.075600
 H         2.128262        -0.611422         2.076099
 H         3.400397        -2.601375         1.157170
 H         2.836342        -2.748761        -1.561267
 H         4.265905        -0.014019        -0.631163
 H         4.309502        -0.513853        -2.302194
 H         2.053180         0.465865        -2.837827
