19
Iteration:  1103
 C         0.111940        -0.154949        -0.155301
 C         1.583332        -0.004250         0.019105
 O         1.857947         1.417249         0.213337
 C         2.136234        -0.993294         1.107202
 C         2.853829        -1.987586         0.541490
 C         2.962120        -1.767697        -0.979569
 C         3.715953        -0.466104        -1.359123
 C         2.213763        -0.531234        -1.188784
 O         1.502973        -0.484021        -2.428407
 H        -0.327377         0.733238        -0.654753
 H        -0.089018        -1.020840        -0.794878
 H        -0.476753        -0.465583         0.662124
 H         2.772131         1.721676        -0.020960
 H         1.958383        -0.743267         2.122082
 H         3.302000        -2.766082         1.088192
 H         3.178109        -2.494935        -1.750123
 H         4.421193        -0.189356        -0.557485
 H         4.073546        -0.442258        -2.447544
 H         1.594540         0.406145        -2.801473
