19
Iteration:  3935charge 0 multiplicity 1
 C        -0.031787        -0.209969         0.173437
 C         1.492933        -0.009664         0.100951
 O         1.891320         1.392638         0.125039
 C         2.216213        -0.929703         1.109931
 C         2.952869        -1.936123         0.450871
 C         3.008802        -1.823557        -1.057171
 C         3.798813        -0.484681        -1.404134
 C         2.263735        -0.522695        -1.288814
 O         1.456526        -0.408040        -2.525606
 H        -0.799978         0.566282        -0.133769
 H        -0.342495        -1.085118        -0.317642
 H        -0.332677        -0.415552         1.257060
 H         1.197928         1.977611         0.401764
 H         2.087642        -0.863252         2.223482
 H         3.576435        -2.766170         0.861058
 H         3.085823        -2.770097        -1.557087
 H         4.597009        -0.215920        -0.570068
 H         4.117434        -0.590953        -2.476775
 H         1.944707         0.220862        -3.090612
