19
Iteration:  4477
 C         0.044823        -0.230253         0.066128
 C         1.601689        -0.016354         0.034178
 O         1.716695         1.339734         0.369136
 C         2.304832        -0.962277         1.020879
 C         2.985450        -1.904596         0.483350
 C         2.985332        -1.849931        -0.963916
 C         3.689856        -0.598574        -1.489421
 C         2.207314        -0.499611        -1.277582
 O         1.552453        -0.214758        -2.567654
 H        -0.260902        -1.324077         0.000945
 H        -0.243456         0.114835         0.969761
 H        -0.431168         0.518692        -0.687848
 H         2.297092         1.709649        -0.218456
 H         2.104784        -0.775607         2.127999
 H         3.417201        -2.777525         1.020989
 H         3.141895        -2.647277        -1.652935
 H         4.454349        -0.337313        -0.725531
 H         3.911589        -0.809682        -2.585650
 H         0.586891        -0.111989        -2.339346
