19
Iteration:  3441
 C        -0.050162         0.134409         0.066103
 C         1.536359        -0.053444         0.009854
 O         1.888483         1.287233         0.366754
 C         2.125551        -1.004612         0.994993
 C         3.049974        -1.868226         0.471789
 C         3.160433        -1.762561        -0.950917
 C         3.721922        -0.374199        -1.480895
 C         2.184772        -0.590052        -1.383816
 O         1.392302        -0.722382        -2.521510
 H        -0.391036         1.016533        -0.255411
 H        -0.432267        -0.685510        -0.658667
 H        -0.503915         0.084235         1.029938
 H         2.150112         1.411202         1.354549
 H         1.946620        -0.911804         2.097193
 H         3.667760        -2.504668         1.121231
 H         3.429834        -2.524343        -1.584573
 H         4.219295         0.293370        -0.734667
 H         4.272650        -0.320468        -2.382045
 H         1.512294         0.122851        -3.026493
