19
Iteration:  4876charge 0 multiplicity 1
 C        -0.089025        -0.061676         0.009862
 C         1.518920         0.008195         0.003309
 O         2.048991         1.397165         0.457462
 C         2.120611        -1.038695         0.962885
 C         3.003780        -1.934801         0.433805
 C         3.085112        -1.641584        -0.983917
 C         3.697340        -0.379963        -1.493258
 C         2.201681        -0.526003        -1.284295
 O         1.381443        -0.681437        -2.437099
 H        -0.381069        -0.432909        -1.024302
 H        -0.285957        -0.941438         0.727194
 H        -0.620662         0.840457         0.366138
 H         3.090003         1.212414         0.542171
 H         1.711138        -1.068791         1.919345
 H         3.462034        -2.744520         0.979934
 H         2.987334        -2.420501        -1.786928
 H         4.089949         0.365660        -0.740849
 H         4.000945        -0.324890        -2.579589
 H         1.711383        -0.233594        -3.283761
