19
Iteration:   228
 C        -0.046835        -0.161455        -0.084035
 C         1.510321         0.001326         0.024103
 O         1.943599         1.346319         0.128545
 C         2.049517        -0.938679         1.115745
 C         2.842164        -1.856202         0.532763
 C         3.131379        -1.804332        -0.927808
 C         3.775800        -0.542144        -1.384862
 C         2.265700        -0.605808        -1.286603
 O         1.455895        -0.369956        -2.418966
 H        -0.634530         0.251749         0.773909
 H        -0.318112         0.430920        -0.955493
 H        -0.203528        -1.240561        -0.184028
 H         2.821662         1.236858         0.652759
 H         1.685974        -0.971300         2.123759
 H         3.397916        -2.584413         1.144992
 H         3.333807        -2.710336        -1.545582
 H         4.221338        -0.071053        -0.565843
 H         4.216945        -0.510967        -2.411993
 H         1.858352         0.249128        -3.042283
