19
Iteration:  1788charge 0 multiplicity 1
 C         0.084755        -0.162268        -0.041450
 C         1.603887        -0.037518         0.042309
 O         2.034364         1.329871         0.238065
 C         2.141817        -0.948176         1.082509
 C         2.876113        -1.922810         0.539025
 C         3.051941        -1.803414        -0.932848
 C         3.706948        -0.504863        -1.403688
 C         2.237673        -0.510274        -1.323974
 O         1.323945        -0.391183        -2.409487
 H        -0.244586         0.685364        -0.681108
 H        -0.223140        -1.074198        -0.624283
 H        -0.390127         0.020654         0.903353
 H         1.571459         1.750891        -0.526564
 H         2.004006        -0.681371         2.115690
 H         3.259265        -2.789322         1.062478
 H         3.018626        -2.630962        -1.634342
 H         4.076221         0.018668        -0.508198
 H         4.160315        -0.629335        -2.380917
 H         1.715175        -0.206497        -3.298088
