19
Iteration:  1500charge 0 multiplicity 1
 C        -0.030753        -0.092288         0.067763
 C         1.549721        -0.043567         0.011632
 O         1.955365         1.320858         0.377015
 C         2.101235        -0.907899         1.026564
 C         2.915733        -1.879853         0.523981
 C         2.949222        -1.797915        -0.972036
 C         3.769650        -0.626598        -1.422964
 C         2.233521        -0.503012        -1.292048
 O         1.550682        -0.464211        -2.579541
 H        -0.460367         0.714635        -0.484508
 H        -0.440520        -0.973408        -0.263328
 H        -0.375879        -0.215271         1.098394
 H         1.748112         1.876752        -0.453909
 H         2.153120        -0.452277         2.068543
 H         3.430569        -2.783483         0.968448
 H         2.921214        -2.574798        -1.736546
 H         4.396767         0.011514        -0.759567
 H         4.182819        -0.737981        -2.363041
 H         1.605916         0.445383        -2.926438
