19
Iteration:  4397
 C         0.125765        -0.209265         0.151446
 C         1.597499        -0.044950        -0.039834
 O         1.793298         1.393533         0.261774
 C         2.257212        -1.006294         0.989784
 C         2.911980        -1.976904         0.471074
 C         2.977259        -1.771461        -0.978779
 C         3.713660        -0.471460        -1.397836
 C         2.252648        -0.462667        -1.360929
 O         1.405036        -0.396950        -2.487443
 H        -0.229528        -1.195959        -0.106033
 H        -0.229276         0.102890         1.232451
 H        -0.468488         0.360463        -0.521975
 H         2.203854         1.417168         1.082772
 H         2.050088        -0.862355         2.066877
 H         3.344059        -2.914560         0.908969
 H         3.029474        -2.581646        -1.776677
 H         4.228496         0.085565        -0.602402
 H         4.146930        -0.487107        -2.393710
 H         1.827403         0.260067        -3.088347
