19
Iteration:   368charge 0 multiplicity 1
 C        -0.031561        -0.124818        -0.107271
 C         1.533699        -0.081671        -0.079348
 O         1.862496         1.354900         0.292743
 C         2.088025        -0.934060         1.047088
 C         2.937384        -1.862173         0.602586
 C         2.956820        -1.804918        -0.906344
 C         3.812973        -0.497271        -1.376139
 C         2.255336        -0.595917        -1.332826
 O         1.496761        -0.385799        -2.460243
 H        -0.604082         0.518446         0.625180
 H        -0.457787         0.310078        -1.036734
 H        -0.411817        -1.163846         0.072520
 H         2.630137         1.289211         0.837750
 H         2.147832        -0.574210         2.120777
 H         3.649823        -2.574167         1.061092
 H         3.057594        -2.569388        -1.677244
 H         4.425211        -0.096099        -0.593405
 H         4.207335        -0.463368        -2.449406
 H         2.080796        -0.558450        -3.234705
