19
Iteration:  2182
 C         0.063260        -0.208573         0.033556
 C         1.603908         0.040164         0.004574
 O         1.753819         1.373595         0.465235
 C         2.316084        -0.735300         1.052537
 C         2.879788        -1.812169         0.556164
 C         2.838865        -1.830984        -0.988695
 C         3.745062        -0.750916        -1.466776
 C         2.299679        -0.475669        -1.404088
 O         1.454828        -0.470293        -2.597559
 H        -0.348612         0.351102        -0.799405
 H        -0.222475        -1.293021        -0.138049
 H        -0.349506         0.254170         1.009846
 H         2.619547         1.381877         0.776265
 H         2.193961        -0.730777         2.075370
 H         3.628395        -2.338008         1.094358
 H         2.535143        -2.727784        -1.649000
 H         4.394885        -0.321593        -0.727113
 H         4.264335        -0.826287        -2.518662
 H         2.088673        -0.104865        -3.235526
