19
Iteration:  4252
 C         0.026706        -0.088787         0.110276
 C         1.552362        -0.045025        -0.003894
 O         1.937471         1.288583         0.412511
 C         2.171894        -1.032615         0.995709
 C         2.905857        -1.932240         0.508516
 C         3.089082        -1.708857        -1.009923
 C         3.645132        -0.395829        -1.365536
 C         2.162627        -0.561512        -1.327198
 O         1.449533        -0.524588        -2.631419
 H        -0.539588        -0.831663         0.676821
 H        -0.387388         0.915862         0.476886
 H        -0.458877        -0.209449        -0.845144
 H         2.883951         1.472137         0.250777
 H         2.137711        -0.786516         2.051861
 H         3.379517        -2.718384         1.107455
 H         3.385191        -2.396916        -1.735845
 H         4.233069         0.290591        -0.744962
 H         3.938023        -0.292604        -2.413447
 H         1.701272         0.310750        -2.999945
