19
Iteration:  4780
 C         0.078927        -0.307931         0.047653
 C         1.566750        -0.066299         0.058549
 O         1.760654         1.386538         0.269331
 C         2.292854        -0.904366         1.121421
 C         2.896163        -2.012679         0.544350
 C         2.943827        -1.823910        -1.032788
 C         3.724639        -0.608083        -1.496430
 C         2.280319        -0.430059        -1.260081
 O         1.514273        -0.228959        -2.549509
 H        -0.046296        -1.392888        -0.063835
 H        -0.296595         0.020837         0.926976
 H        -0.372977         0.256035        -0.768962
 H         2.621208         1.582345         0.005362
 H         2.214827        -0.501149         2.109085
 H         3.378473        -2.855685         1.093583
 H         2.751428        -2.770791        -1.614717
 H         4.549384        -0.093190        -0.884988
 H         3.767439        -0.478154        -2.611508
 H         0.746479         0.367899        -2.284393
