19
Iteration:  1557
 C         0.039650        -0.107674        -0.028716
 C         1.616670         0.002206         0.065442
 O         1.954989         1.361416         0.115020
 C         2.219590        -0.997477         1.123968
 C         2.764770        -2.037013         0.449127
 C         3.044049        -1.789041        -0.951649
 C         3.756506        -0.480043        -1.345409
 C         2.249510        -0.542904        -1.206270
 O         1.423480        -0.375559        -2.423285
 H        -0.366403         0.214243        -0.943008
 H        -0.212994        -1.129962         0.102652
 H        -0.312877         0.536657         0.733434
 H         1.176745         1.863648        -0.172763
 H         1.814626        -1.068114         2.075069
 H         3.369038        -2.796269         0.892827
 H         2.887726        -2.567560        -1.706302
 H         4.304361        -0.140224        -0.539120
 H         4.148596        -0.327886        -2.383919
 H         1.966021        -0.123153        -3.181876
