19
Iteration:   625charge 0 multiplicity 1
 C         0.077292        -0.038951        -0.037478
 C         1.553002        -0.056808        -0.055704
 O         1.973440         1.368493         0.169854
 C         2.098101        -0.982606         1.106467
 C         2.873154        -1.951975         0.589335
 C         3.074665        -1.813798        -0.881976
 C         3.644166        -0.374416        -1.294240
 C         2.174152        -0.537798        -1.345634
 O         1.605821        -0.492020        -2.650933
 H        -0.257176         0.303668         0.918899
 H        -0.369585         0.678245        -0.711399
 H        -0.503641        -1.014303        -0.074083
 H         1.808599         1.497395         1.080003
 H         1.766608        -0.857036         2.142030
 H         3.265093        -2.791083         1.128657
 H         3.156552        -2.699828        -1.463498
 H         4.043029         0.084154        -0.339473
 H         4.133971        -0.179575        -2.211831
 H         0.882224        -1.154678        -2.542661
