19
Iteration:  2072
 C         0.069447         0.005989         0.032985
 C         1.576517        -0.019879         0.069801
 O         1.824732         1.398477         0.358756
 C         2.269082        -0.967660         1.111422
 C         2.953325        -1.989187         0.517466
 C         2.920468        -1.741584        -0.935754
 C         3.651683        -0.572649        -1.533477
 C         2.147981        -0.495133        -1.309904
 O         1.621518        -0.537371        -2.645427
 H        -0.304781         0.733689        -0.752652
 H        -0.295423        -0.957411        -0.247517
 H        -0.387311         0.209608         1.056964
 H         2.820816         1.501638         0.352907
 H         1.928732        -0.794456         2.198858
 H         3.683027        -2.498959         1.123426
 H         2.784000        -2.621901        -1.534013
 H         4.213839         0.017272        -0.758086
 H         3.794110        -0.443353        -2.571187
 H         0.680233        -0.752197        -2.499936
