19
Iteration:  4930
 C        -0.082861         0.051747        -0.039580
 C         1.489635        -0.059296         0.065589
 O         1.915921         1.336307         0.311279
 C         2.162710        -1.141496         1.058325
 C         3.102217        -1.861387         0.510249
 C         3.184797        -1.783316        -0.982998
 C         3.594735        -0.397698        -1.548962
 C         2.184592        -0.576453        -1.248078
 O         1.438027        -0.533813        -2.469385
 H        -0.415483         0.326524        -1.109070
 H        -0.659622        -0.844478         0.485215
 H        -0.239771         0.982768         0.618178
 H         2.963691         1.297500         0.460689
 H         1.906454        -0.972790         2.060287
 H         3.662176        -2.636574         1.016077
 H         3.663467        -2.590868        -1.592850
 H         4.320598        -0.074882        -0.743456
 H         3.914405        -0.455385        -2.629613
 H         0.702565         0.147036        -2.593109
