19
Iteration:  1560
 C         0.042879        -0.108652        -0.034975
 C         1.597074         0.006093         0.063058
 O         1.953200         1.380958         0.134028
 C         2.219712        -0.995715         1.125517
 C         2.774138        -2.022420         0.440333
 C         3.052338        -1.813080        -0.964151
 C         3.744190        -0.502285        -1.360370
 C         2.270575        -0.529153        -1.236484
 O         1.430521        -0.383441        -2.393268
 H        -0.387397         0.246957        -1.009266
 H        -0.245701        -1.231676         0.116818
 H        -0.322923         0.583234         0.734969
 H         1.145470         1.791713        -0.106644
 H         1.780753        -0.993612         2.152774
 H         3.277135        -2.877379         0.933579
 H         2.891878        -2.533837        -1.771533
 H         4.308661        -0.034415        -0.478985
 H         4.172931        -0.344147        -2.391256
 H         1.949566        -0.172461        -3.205038
