19
Iteration:  3772
 C        -0.049973        -0.104385        -0.007794
 C         1.531596         0.000472         0.037690
 O         2.126472         1.337048         0.187084
 C         2.112614        -1.039995         1.076446
 C         2.935011        -2.030905         0.521366
 C         3.100179        -1.657259        -0.912209
 C         3.582831        -0.295615        -1.388852
 C         2.178922        -0.442488        -1.316679
 O         1.476256        -0.714268        -2.551432
 H        -0.359115         0.908395        -0.406258
 H        -0.243605        -0.862943        -0.645593
 H        -0.384636        -0.226047         1.066768
 H         1.758375         1.805759         1.028049
 H         2.002269        -0.853445         2.098910
 H         3.584292        -2.720412         1.156293
 H         3.167002        -2.412393        -1.698807
 H         4.035087         0.303705        -0.608744
 H         4.279517        -0.350741        -2.351832
 H         0.945523         0.083534        -2.721343
