19
Iteration:   726
 C        -0.062490        -0.040793        -0.067227
 C         1.429977        -0.025400        -0.017041
 O         1.880754         1.297514         0.232404
 C         2.149905        -0.901066         1.026240
 C         2.988191        -1.797203         0.549597
 C         2.963636        -1.847079        -0.895572
 C         3.704830        -0.550368        -1.322592
 C         2.217098        -0.600996        -1.255607
 O         1.629046        -0.447269        -2.499624
 H        -0.584712         0.419893         0.772081
 H        -0.469908         0.310800        -1.037998
 H        -0.324117        -1.054975        -0.145587
 H         2.829728         1.262285        -0.064755
 H         1.885767        -0.757282         2.082483
 H         3.487882        -2.676274         1.036651
 H         3.066088        -2.756286        -1.544283
 H         4.371917        -0.278802        -0.510460
 H         4.070766        -0.502849        -2.418244
 H         1.926754         0.394866        -2.887504
