19
Iteration:  1715
 C         0.037162        -0.084993         0.071302
 C         1.550516        -0.044747         0.001993
 O         1.958762         1.361630         0.270525
 C         2.181347        -0.931977         1.052673
 C         2.899845        -1.933259         0.473949
 C         2.947591        -1.761931        -0.955338
 C         3.697853        -0.546126        -1.370064
 C         2.193427        -0.410459        -1.357489
 O         1.552840        -0.571691        -2.583902
 H        -0.403957         0.096333        -0.943361
 H        -0.284795        -1.062630         0.304904
 H        -0.398442         0.711722         0.689091
 H         2.174084         1.538134         1.262141
 H         2.128551        -0.610832         2.048293
 H         3.263930        -2.770998         1.065906
 H         2.842271        -2.689640        -1.517614
 H         4.103578        -0.176105        -0.474728
 H         4.173740        -0.623959        -2.367626
 H         1.243290         0.317799        -2.851157
