19
Iteration:  2044charge 0 multiplicity 1
 C         0.058168        -0.068593        -0.070946
 C         1.586295        -0.006635         0.080468
 O         1.823585         1.439175         0.521504
 C         2.191050        -0.882185         0.979477
 C         2.918990        -1.873215         0.476690
 C         2.987159        -1.810051        -0.979803
 C         3.790061        -0.653143        -1.587133
 C         2.280142        -0.487579        -1.332895
 O         1.410580        -0.471754        -2.443666
 H        -0.235267         0.553420        -0.870869
 H        -0.230058        -1.124404        -0.377732
 H        -0.546189         0.244363         0.775891
 H         2.828467         1.603640         0.324830
 H         1.950070        -0.605352         1.934906
 H         3.304378        -2.650793         1.130776
 H         2.804192        -2.791739        -1.514190
 H         4.494352        -0.235178        -0.940190
 H         4.049598        -0.842080        -2.685203
 H         1.202580        -1.430068        -2.587709
