19
Iteration:  3387charge 0 multiplicity 1
 C         0.027519        -0.226928        -0.096044
 C         1.569796        -0.063455         0.024787
 O         2.148233         1.378411         0.278473
 C         2.104445        -1.063202         1.073837
 C         2.905222        -1.925861         0.539664
 C         3.100923        -1.684471        -0.930855
 C         3.691766        -0.339328        -1.502285
 C         2.177321        -0.498114        -1.308347
 O         1.351547        -0.562258        -2.421188
 H        -0.338330         0.112950        -1.058373
 H        -0.473187        -1.306821        -0.028954
 H        -0.475793         0.335974         0.693042
 H         1.545681         1.857375         0.970722
 H         1.843851        -0.832685         2.143627
 H         3.535773        -2.683117         0.986141
 H         3.165079        -2.466821        -1.622881
 H         4.131274         0.453337        -0.851486
 H         3.883627        -0.461713        -2.536744
 H         1.386719         0.352258        -2.802767
