19
Iteration:  2063
 C         0.036256        -0.017093        -0.047556
 C         1.573949         0.083677        -0.003393
 O         1.808024         1.379422         0.450044
 C         2.256715        -0.966506         1.164865
 C         2.914963        -1.935118         0.555429
 C         2.907454        -1.772507        -0.958265
 C         3.675939        -0.594479        -1.607590
 C         2.228407        -0.513401        -1.291940
 O         1.597568        -0.534246        -2.578562
 H        -0.498558         0.730762        -0.645954
 H        -0.332270        -1.031594        -0.252607
 H        -0.314530         0.327152         1.009580
 H         2.780576         1.630525         0.363216
 H         2.329428        -0.889791         2.261641
 H         3.614266        -2.650396         0.921196
 H         2.821242        -2.529594        -1.752628
 H         4.441542        -0.057760        -1.045010
 H         3.813966        -0.493570        -2.681801
 H         0.845226        -1.159659        -2.639262
