19
Iteration:  4596charge 0 multiplicity 1
 C        -0.017325         0.094897        -0.030423
 C         1.519602        -0.044721         0.015208
 O         2.090870         1.182552         0.457037
 C         1.990138        -1.108246         0.976493
 C         3.059508        -1.811904         0.444089
 C         3.148050        -1.694948        -1.009863
 C         3.686523        -0.304132        -1.476280
 C         2.180343        -0.552681        -1.329742
 O         1.303751        -0.685461        -2.443070
 H        -0.627194        -0.885723         0.130667
 H        -0.482314         0.706119         0.692271
 H        -0.340552         0.682954        -1.027547
 H         2.735095         1.138014         1.286221
 H         1.833543        -0.994711         2.088491
 H         3.871041        -2.435703         0.855999
 H         3.511799        -2.464155        -1.658938
 H         4.141648         0.388409        -0.732255
 H         3.793469        -0.225537        -2.594105
 H         1.558385        -0.007991        -3.117956
