19
Iteration:  1525charge 0 multiplicity 1
 C        -0.022797        -0.113968         0.084730
 C         1.585094        -0.047806        -0.041901
 O         2.037405         1.290603         0.202304
 C         2.167322        -0.883064         1.076228
 C         2.849895        -1.948839         0.528309
 C         3.060394        -1.864853        -0.947415
 C         3.609252        -0.530903        -1.314128
 C         2.191138        -0.591055        -1.330391
 O         1.515276        -0.327469        -2.555383
 H        -0.642597         0.466571        -0.571943
 H        -0.380282        -1.191765         0.093028
 H        -0.211102         0.057770         1.130890
 H         1.708168         1.875848        -0.476591
 H         1.891921        -0.870982         2.075080
 H         3.506483        -2.614060         1.051110
 H         3.100244        -2.811068        -1.532621
 H         3.938930         0.014839        -0.483445
 H         4.273388        -0.337819        -2.218595
 H         1.808697         0.572850        -2.870101
