19
Iteration:   864
 C        -0.009307        -0.075963        -0.202142
 C         1.601792        -0.017451         0.030789
 O         1.909866         1.471944         0.240776
 C         2.049369        -0.997915         1.103650
 C         2.902251        -1.918714         0.598668
 C         3.015750        -1.761236        -0.833172
 C         3.783300        -0.561446        -1.419539
 C         2.290318        -0.498957        -1.285614
 O         1.489155        -0.493135        -2.518360
 H        -0.532736        -0.318824         0.745325
 H        -0.198719         1.021277        -0.417723
 H        -0.305937        -0.693967        -1.092647
 H         2.841532         1.441343        -0.006443
 H         1.647570        -0.966530         2.129203
 H         3.329154        -2.705411         1.263933
 H         2.915366        -2.636400        -1.505326
 H         4.443469        -0.054934        -0.710911
 H         4.290997        -0.917627        -2.341786
 H         0.700359        -1.028750        -2.316954
