19
Iteration:  2748
 C        -0.124274        -0.186304         0.229091
 C         1.491516        -0.077841        -0.015349
 O         1.929669         1.359186        -0.014447
 C         2.222336        -0.975942         1.144433
 C         2.974845        -1.891167         0.519861
 C         2.993446        -1.827841        -0.993381
 C         3.695102        -0.558995        -1.369474
 C         2.200180        -0.584428        -1.257452
 O         1.536775        -0.293973        -2.524373
 H        -0.562171         0.848830         0.080943
 H        -0.497468        -0.916451        -0.586530
 H        -0.187059        -0.564918         1.232446
 H         2.967220         1.365559         0.042325
 H         2.122943        -0.527968         2.153896
 H         3.536719        -2.686540         1.037297
 H         2.918807        -2.697055        -1.610724
 H         4.325609        -0.064661        -0.589041
 H         3.974345        -0.429831        -2.434014
 H         1.610592         0.669005        -2.592053
