19
Iteration:  1619charge 0 multiplicity 1
 C         0.027643        -0.149963        -0.160342
 C         1.535651         0.017762         0.016986
 O         2.017356         1.298183         0.451556
 C         2.166143        -0.897796         1.048179
 C         2.967309        -1.846329         0.573141
 C         2.878358        -1.806561        -0.873208
 C         3.721016        -0.537530        -1.488507
 C         2.173427        -0.575018        -1.278144
 O         1.497787        -0.401011        -2.516916
 H        -0.449609         0.788772        -0.653610
 H        -0.291273        -0.983901        -0.756362
 H        -0.549053        -0.309415         0.858020
 H         1.532754         1.875566        -0.203880
 H         2.002400        -0.609072         2.040347
 H         3.523775        -2.655194         1.079440
 H         2.837967        -2.743699        -1.436649
 H         4.549438        -0.219049        -0.921428
 H         3.897198        -0.602062        -2.593053
 H         2.187564        -0.537816        -3.193407
