19
Iteration:  3127
 C         0.004917        -0.054026        -0.082257
 C         1.497888        -0.077328        -0.046629
 O         1.992631         1.236717         0.548773
 C         2.105559        -0.976659         1.110104
 C         3.037063        -1.801359         0.577170
 C         3.077375        -1.681349        -0.924140
 C         3.738210        -0.469055        -1.586933
 C         2.240435        -0.520743        -1.376201
 O         1.328624        -0.585261        -2.523377
 H        -0.356783         0.606310        -0.952539
 H        -0.554484        -1.040168        -0.117771
 H        -0.253710         0.443204         0.830370
 H         1.675701         1.746195        -0.160473
 H         2.095572        -0.749651         2.175813
 H         3.798355        -2.137034         1.317466
 H         3.161769        -2.677954        -1.502568
 H         4.351558         0.105316        -0.897976
 H         3.922642        -0.743795        -2.610255
 H         1.714847        -0.208923        -3.313377
