19
Iteration:  4559charge 0 multiplicity 1
 C         0.059497         0.035728        -0.031382
 C         1.586416        -0.107156         0.055060
 O         1.996883         1.235316         0.258743
 C         2.128249        -1.119791         1.057493
 C         2.946043        -1.925411         0.486943
 C         3.151293        -1.727725        -0.979357
 C         3.625627        -0.256508        -1.453850
 C         2.223515        -0.534169        -1.278707
 O         1.256200        -0.480272        -2.425902
 H        -0.298387        -0.907780        -0.411568
 H        -0.305369         0.336492         1.049235
 H        -0.206709         0.696293        -0.784526
 H         2.493726         1.132671         1.079047
 H         1.752023        -0.962265         2.035928
 H         3.439042        -2.796674         0.889241
 H         3.631780        -2.472884        -1.637120
 H         4.182065         0.543746        -0.978580
 H         3.925257        -0.231795        -2.505239
 H         1.795464        -0.989029        -3.116734
