19
Iteration:  1601charge 0 multiplicity 1
 C         0.093346        -0.143234        -0.108104
 C         1.616261        -0.028750        -0.013362
 O         1.952441         1.327638         0.440126
 C         2.129853        -0.897254         1.140195
 C         2.863330        -1.862302         0.614264
 C         2.966037        -1.801140        -0.982852
 C         3.739204        -0.639415        -1.465113
 C         2.266323        -0.439479        -1.387338
 O         1.427751        -0.417821        -2.522426
 H        -0.365279         0.477512        -0.829388
 H        -0.059898        -1.146605        -0.512494
 H        -0.336796         0.048495         0.844122
 H         1.285380         2.040724         0.346601
 H         1.920882        -0.759864         2.179700
 H         3.465414        -2.582454         1.158991
 H         2.768004        -2.677945        -1.626279
 H         4.170094         0.053766        -0.789119
 H         4.231423        -0.796760        -2.455473
 H         1.863570        -0.661148        -3.346747
