19
Iteration:  4263
 C        -0.046466         0.017653         0.077637
 C         1.505561        -0.026360         0.052113
 O         1.967822         1.316404         0.449634
 C         2.141298        -1.046670         1.041771
 C         2.948511        -2.069056         0.455303
 C         3.134472        -1.678845        -0.971578
 C         3.687161        -0.257892        -1.413266
 C         2.101058        -0.565491        -1.341907
 O         1.471969        -0.626606        -2.630649
 H        -0.202059        -0.830362         0.728380
 H        -0.265576         1.026313         0.593482
 H        -0.401778        -0.072732        -0.923534
 H         2.733229         1.296199        -0.048959
 H         1.931642        -1.014735         2.126125
 H         3.378098        -2.967420         0.934254
 H         3.356903        -2.461919        -1.627319
 H         4.267849         0.471163        -0.832794
 H         3.882893        -0.300097        -2.482270
 H         1.731656         0.138300        -3.150523
