19
Iteration:   668charge 0 multiplicity 1
 C        -0.004124        -0.175145        -0.175612
 C         1.620490         0.055000        -0.102778
 O         1.880038         1.464964         0.305413
 C         2.039384        -0.913446         1.040779
 C         2.800111        -1.926309         0.576533
 C         3.092116        -1.769146        -0.932318
 C         3.822110        -0.542077        -1.388868
 C         2.354700        -0.521710        -1.283730
 O         1.408377        -0.496280        -2.384416
 H        -0.421931        -0.622722         0.735174
 H        -0.402127         0.832428        -0.319955
 H        -0.202916        -0.914432        -1.047360
 H         2.778820         1.538842         0.701220
 H         1.717759        -0.725234         2.075110
 H         3.301025        -2.712797         1.074698
 H         2.920751        -2.572675        -1.592435
 H         4.494635        -0.045961        -0.641198
 H         4.190626        -0.616320        -2.376729
 H         1.422013        -1.323163        -2.932077
