19
Iteration:  4783
 C         0.073827        -0.304821         0.028346
 C         1.572023        -0.072347         0.095792
 O         1.777667         1.356342         0.253472
 C         2.299015        -0.905000         1.107547
 C         2.914309        -1.978872         0.549929
 C         2.925500        -1.835735        -1.015669
 C         3.732804        -0.568345        -1.496117
 C         2.258038        -0.427387        -1.260713
 O         1.513806        -0.231203        -2.550680
 H        -0.059094        -1.386946        -0.106980
 H        -0.385544        -0.070522         1.029045
 H        -0.416319         0.346962        -0.769429
 H         2.705074         1.523362        -0.034900
 H         2.148342        -0.589129         2.115450
 H         3.328418        -2.795370         1.047659
 H         2.692739        -2.709784        -1.622216
 H         4.543013        -0.228349        -0.895668
 H         3.798317        -0.511801        -2.572487
 H         0.790669         0.347031        -2.328625
