19
Iteration:  2055charge 0 multiplicity 1
 C         0.006836        -0.029646        -0.069531
 C         1.573222         0.090095         0.002941
 O         1.812299         1.399809         0.504454
 C         2.208306        -0.931126         1.147195
 C         2.939829        -1.902711         0.508375
 C         2.928477        -1.821287        -0.994788
 C         3.730302        -0.573460        -1.612301
 C         2.255745        -0.513293        -1.302534
 O         1.536660        -0.511543        -2.517955
 H        -0.367328         0.644397        -0.799902
 H        -0.350740        -1.095704        -0.262876
 H        -0.271985         0.193702         0.946817
 H         2.748011         1.633085         0.346586
 H         2.347137        -0.699308         2.138213
 H         3.387748        -2.805553         0.964496
 H         2.727819        -2.748033        -1.627831
 H         4.547827        -0.131881        -1.146323
 H         3.957127        -0.833228        -2.706114
 H         1.089936        -1.370528        -2.565187
