19
Iteration:  1621charge 0 multiplicity 1
 C         0.010516        -0.126874        -0.158596
 C         1.528259         0.002462         0.010110
 O         2.010915         1.304961         0.439430
 C         2.186981        -0.886300         1.044689
 C         2.954543        -1.858609         0.582423
 C         2.904200        -1.817440        -0.897549
 C         3.718650        -0.536696        -1.468624
 C         2.150960        -0.584141        -1.263105
 O         1.511791        -0.400425        -2.500567
 H        -0.532141         0.731156        -0.607991
 H        -0.215519        -0.944152        -0.823552
 H        -0.535657        -0.312533         0.825048
 H         1.676413         1.879015        -0.205439
 H         1.969146        -0.687213         2.040220
 H         3.629686        -2.588945         1.056259
 H         2.787046        -2.755580        -1.477363
 H         4.532232        -0.172905        -0.969032
 H         3.808761        -0.622225        -2.599212
 H         2.185121        -0.494465        -3.220518
