19
Iteration:  1027
 C        -0.055746        -0.143660         0.090453
 C         1.489370         0.013262         0.059617
 O         1.801977         1.354189         0.219943
 C         2.254085        -0.894996         1.123481
 C         2.758835        -2.021577         0.464793
 C         2.983476        -1.738996        -0.989219
 C         3.802625        -0.545080        -1.314690
 C         2.194417        -0.574973        -1.282591
 O         1.739664        -0.296960        -2.621391
 H        -0.497350        -0.240535        -0.920400
 H        -0.421211        -1.052024         0.571232
 H        -0.570259         0.597828         0.676166
 H         2.719471         1.450529        -0.085111
 H         2.184312        -0.722422         2.213520
 H         3.261993        -2.844306         0.943312
 H         2.832200        -2.543905        -1.705520
 H         4.625028        -0.122308        -0.655174
 H         4.090487        -0.739017        -2.331095
 H         1.102141        -1.002629        -2.891208
