19
Iteration:  3691charge 0 multiplicity 1
 C         0.061225         0.009707        -0.075464
 C         1.489567        -0.078795         0.047472
 O         1.922448         1.237188         0.554726
 C         2.163268        -0.921843         1.030879
 C         3.004558        -1.803653         0.515307
 C         3.075932        -1.773592        -0.918685
 C         3.597436        -0.403106        -1.481067
 C         2.162472        -0.473930        -1.348221
 O         1.488699        -0.697344        -2.589243
 H        -0.096661         0.553929        -0.986896
 H        -0.494460        -1.075351        -0.190703
 H        -0.436803         0.470422         0.750450
 H         2.717479         1.615134        -0.034976
 H         1.771312        -0.855165         2.046466
 H         3.524040        -2.504487         1.142946
 H         3.055721        -2.629908        -1.641415
 H         4.096517         0.289639        -0.810151
 H         3.794867        -0.285740        -2.526971
 H         1.948106        -0.075643        -3.209997
