19
Iteration:  3613charge 0 multiplicity 1
 C         0.097238        -0.337929         0.067956
 C         1.609096        -0.050508         0.072754
 O         1.802198         1.459064        -0.014267
 C         2.310842        -0.921129         1.090684
 C         2.825848        -1.999685         0.538304
 C         2.965489        -1.846881        -0.935072
 C         3.713932        -0.531397        -1.283529
 C         2.217064        -0.525382        -1.316632
 O         1.467241        -0.303655        -2.513448
 H        -0.363355         0.400534        -0.585396
 H        -0.231508        -1.294520        -0.357460
 H        -0.469394        -0.294462         1.018277
 H         2.499813         1.823975         0.548175
 H         2.169651        -0.684923         2.114123
 H         3.275131        -2.831499         1.186257
 H         3.267932        -2.595628        -1.655235
 H         4.360766         0.018369        -0.638126
 H         4.083538        -0.313598        -2.329379
 H         1.331841         0.651449        -2.465739
