19
Iteration:  3333charge 0 multiplicity 1
 C        -0.045964        -0.086758         0.296802
 C         1.464198         0.031089         0.001982
 O         1.830101         1.347978         0.011241
 C         2.300854        -0.971327         1.047911
 C         3.013856        -2.052976         0.472565
 C         2.968751        -1.787569        -1.018621
 C         3.720095        -0.435603        -1.303413
 C         2.158917        -0.572882        -1.275213
 O         1.630619        -0.451290        -2.584234
 H        -0.795835         0.572120        -0.181270
 H        -0.458347        -1.123146        -0.140719
 H        -0.288016        -0.248506         1.353528
 H         1.324680         1.820739         0.754607
 H         2.340553        -0.744633         2.153579
 H         3.618744        -2.742104         0.981890
 H         2.936957        -2.611486        -1.708287
 H         4.337533        -0.088706        -0.489974
 H         4.075261        -0.384472        -2.338243
 H         1.688910         0.522331        -2.682561
