19
Iteration:  2773
 C         0.071761        -0.140076         0.173696
 C         1.546627        -0.048745        -0.025219
 O         1.737828         1.387049         0.245245
 C         2.255197        -0.878848         1.004104
 C         2.922553        -1.924710         0.465274
 C         2.927384        -1.792870        -0.975802
 C         3.797921        -0.606696        -1.394301
 C         2.214801        -0.582277        -1.305247
 O         1.491809        -0.423850        -2.545647
 H        -0.205863         0.995061        -0.001799
 H        -0.305911        -0.780161        -0.576824
 H        -0.097471        -0.556805         1.213133
 H         2.701544         1.655998         0.249538
 H         2.006367        -0.571527         2.026355
 H         3.332970        -2.634208         1.156638
 H         2.982915        -2.687229        -1.576362
 H         4.359226        -0.131686        -0.650809
 H         4.263463        -0.717020        -2.413570
 H         1.557879         0.514042        -2.720008
