19
Iteration:  1388
 C        -0.085168         0.022841         0.170067
 C         1.491966        -0.110221        -0.030895
 O         2.016723         1.262617         0.129139
 C         2.196574        -0.996024         1.034391
 C         2.911364        -1.983664         0.511630
 C         3.084388        -1.745682        -0.951365
 C         3.643558        -0.413578        -1.267470
 C         2.169177        -0.588594        -1.344068
 O         1.607916        -0.502471        -2.579021
 H        -0.239431         0.847866        -0.548288
 H        -0.730255        -0.867248        -0.047879
 H        -0.318704         0.392023         1.162118
 H         1.312157         1.958109         0.198623
 H         2.156020        -0.704563         2.040407
 H         3.098191        -2.888809         0.988192
 H         3.002907        -2.628095        -1.596550
 H         3.917585         0.122757        -0.362850
 H         4.232531        -0.278319        -2.267030
 H         1.759525         0.457664        -2.630035
