19
Iteration:  4202
 C         0.074644        -0.315869        -0.036642
 C         1.570040        -0.024294         0.058944
 O         1.690130         1.451505         0.174267
 C         2.335346        -0.896843         1.111753
 C         2.877101        -2.052769         0.485757
 C         2.979799        -1.872910        -0.993647
 C         3.723829        -0.611247        -1.540695
 C         2.277052        -0.497832        -1.222217
 O         1.507959        -0.190250        -2.370386
 H        -0.353723        -1.194748         0.382623
 H        -0.613763         0.465489         0.384143
 H        -0.240926        -0.400973        -1.063637
 H         2.582622         1.576366         0.462647
 H         2.332315        -0.802916         2.253188
 H         3.446713        -2.800970         1.040671
 H         2.875732        -2.824775        -1.550206
 H         4.508218        -0.155934        -0.986560
 H         4.051706        -0.739340        -2.546072
 H         1.296695         0.778690        -2.381463
