19
Iteration:  2727charge 0 multiplicity 1
 C         0.065201        -0.188811         0.103715
 C         1.542163         0.002141         0.033257
 O         1.930485         1.422087         0.008671
 C         2.260979        -0.944076         1.083878
 C         2.927699        -1.973221         0.512888
 C         3.018011        -1.868057        -0.958241
 C         3.585328        -0.495353        -1.337763
 C         2.118262        -0.649573        -1.241963
 O         1.496800        -0.317244        -2.425448
 H        -0.375933         0.751796        -0.441390
 H        -0.174090        -1.077136        -0.596224
 H        -0.481214        -0.462730         1.005741
 H         2.819766         1.428486        -0.346114
 H         1.861232        -0.998384         2.140878
 H         3.614072        -2.713704         0.938536
 H         3.136380        -2.608729        -1.688308
 H         4.320815        -0.057857        -0.642048
 H         3.956156        -0.364657        -2.368306
 H         1.385467         0.641767        -2.467149
