19
Iteration:  4002
 C        -0.029145         0.057864        -0.018530
 C         1.486067        -0.034633         0.030004
 O         2.004622         1.255269         0.342998
 C         2.059517        -1.053318         1.013415
 C         3.046905        -1.829812         0.517969
 C         3.132460        -1.615428        -0.964546
 C         3.751942        -0.337048        -1.510075
 C         2.157693        -0.490870        -1.312398
 O         1.410639        -0.780521        -2.485240
 H        -0.399713         1.126485        -0.159378
 H        -0.371903        -0.618426        -0.722267
 H        -0.520625        -0.285281         0.918341
 H         2.605642         1.110365         1.117742
 H         1.806492        -1.068161         2.059345
 H         3.567523        -2.644809         0.942094
 H         3.054157        -2.527555        -1.570495
 H         4.390329         0.255681        -0.738663
 H         4.086340        -0.506627        -2.566911
 H         0.989097         0.002756        -2.859726
