19
Iteration:  4387charge 0 multiplicity 1
 C         0.035228        -0.190921         0.104047
 C         1.540989        -0.022442         0.011955
 O         1.846751         1.348382         0.316214
 C         2.204300        -0.898111         1.002048
 C         2.924598        -1.958663         0.388701
 C         3.034288        -1.728511        -1.070579
 C         3.789116        -0.547379        -1.405012
 C         2.196422        -0.479841        -1.282704
 O         1.410845        -0.462609        -2.493111
 H        -0.253245        -1.207652        -0.115391
 H        -0.108542        -0.130868         1.245016
 H        -0.361801         0.660218        -0.392164
 H         2.216126         1.378915         1.168208
 H         1.997498        -0.855719         2.093353
 H         3.469098        -2.675889         1.085178
 H         3.054527        -2.580484        -1.839076
 H         4.312131         0.171992        -0.738037
 H         4.246290        -0.459680        -2.394143
 H         1.713921         0.246865        -3.054782
