19
Iteration:  4291charge 0 multiplicity 1
 C         0.030719         0.093286         0.036686
 C         1.504591        -0.063980         0.049024
 O         2.000491         1.241862         0.406949
 C         1.979284        -1.184166         0.942157
 C         2.962862        -1.863676         0.411992
 C         3.125762        -1.615016        -1.072395
 C         3.759836        -0.252316        -1.397165
 C         2.179833        -0.491010        -1.282965
 O         1.432427        -0.772799        -2.414758
 H        -0.493416        -0.849554         0.452131
 H        -0.180827         0.837167         0.744229
 H        -0.356935         0.428745        -1.026683
 H         2.764992         1.353666        -0.098103
 H         1.677169        -1.190682         1.994156
 H         3.529964        -2.685727         0.888947
 H         3.213120        -2.463300        -1.829665
 H         4.430374         0.347657        -0.686267
 H         4.012814        -0.000271        -2.461461
 H         1.075178         0.034410        -2.874802
