19
Iteration:  2548
 C         0.052994        -0.139717         0.157387
 C         1.554551         0.088798        -0.065993
 O         1.835517         1.451846         0.341776
 C         2.236021        -0.862308         0.964006
 C         2.904356        -1.927865         0.506744
 C         2.921215        -1.846196        -0.984139
 C         3.764411        -0.607310        -1.359067
 C         2.200882        -0.578263        -1.376853
 O         1.516422        -0.574563        -2.575333
 H        -0.394650         0.846245        -0.135477
 H        -0.377074        -0.995599        -0.440947
 H        -0.251151        -0.228676         1.275680
 H         2.770819         1.495733         0.379156
 H         1.892114        -0.599334         2.025020
 H         3.473992        -2.465440         1.294746
 H         2.753373        -2.647195        -1.645988
 H         4.358897        -0.049849        -0.643937
 H         4.197039        -0.476553        -2.352286
 H         1.443642         0.363096        -2.914145
