19
Iteration:  4763charge 0 multiplicity 1
 C         0.144287        -0.310629         0.075667
 C         1.682138         0.044830        -0.002760
 O         1.631039         1.478761         0.340585
 C         2.289858        -0.930259         1.007927
 C         2.838866        -2.005837         0.452667
 C         2.943753        -1.869143        -0.959768
 C         3.763644        -0.631775        -1.509791
 C         2.234625        -0.555965        -1.364370
 O         1.548131        -0.223449        -2.459162
 H        -0.042764        -1.338303         0.440635
 H        -0.292128         0.369856         0.964253
 H        -0.516694        -0.063035        -0.803466
 H         2.436847         1.864900         0.192139
 H         2.319482        -0.826976         2.097646
 H         3.352892        -2.747655         0.985986
 H         2.948606        -2.638802        -1.683309
 H         4.385075        -0.162116        -0.818674
 H         4.169908        -0.893838        -2.459199
 H         0.717359         0.276417        -2.201070
