19
Iteration:  2201charge 0 multiplicity 1
 C         0.088281        -0.219424        -0.008673
 C         1.586891         0.094329        -0.002413
 O         1.744399         1.507804         0.429194
 C         2.229201        -0.886290         1.105890
 C         3.010686        -1.846969         0.550675
 C         2.878837        -1.835464        -0.910533
 C         3.724137        -0.804768        -1.573421
 C         2.209734        -0.516231        -1.330745
 O         1.500548        -0.434239        -2.600341
 H        -0.448204         0.374107        -0.753032
 H         0.094284        -1.215016        -0.247151
 H        -0.350144         0.040472         0.951318
 H         2.438503         1.493230         1.090799
 H         2.097995        -0.440134         2.058767
 H         3.387117        -2.710178         1.051278
 H         2.718688        -2.846847        -1.367602
 H         4.557688        -0.307995        -1.069210
 H         4.046469        -0.905395        -2.644473
 H         1.910727         0.336102        -3.084781
