19
Iteration:  2468
 C         0.069483        -0.245835         0.078241
 C         1.611433         0.002436        -0.008142
 O         1.864989         1.383621         0.157997
 C         2.294065        -0.863669         1.114705
 C         2.792484        -1.955479         0.546569
 C         2.940109        -1.771038        -0.958107
 C         3.815512        -0.620296        -1.426231
 C         2.234512        -0.509304        -1.291616
 O         1.386386        -0.367624        -2.505065
 H        -0.563757         0.004162        -0.812423
 H        -0.184217        -1.263992         0.331047
 H        -0.296999         0.360587         0.881555
 H         2.740915         1.540664        -0.137400
 H         1.987166        -0.726180         2.099625
 H         3.373873        -2.676441         1.084496
 H         2.758076        -2.717212        -1.584204
 H         4.364260        -0.336318        -0.547216
 H         4.229533        -0.641154        -2.444261
 H         1.586743         0.572761        -2.769684
