19
Iteration:  1604
 C         0.075080        -0.159863        -0.107362
 C         1.621948        -0.037292         0.000089
 O         1.958756         1.319937         0.443030
 C         2.118811        -0.906242         1.123543
 C         2.894413        -1.834373         0.614084
 C         2.926807        -1.801046        -0.962233
 C         3.727712        -0.629488        -1.500864
 C         2.270153        -0.440683        -1.365872
 O         1.437672        -0.417597        -2.534159
 H        -0.337700         0.590817        -0.842667
 H        -0.090888        -1.162124        -0.628844
 H        -0.345004         0.041343         0.858534
 H         1.382532         2.031954         0.315936
 H         1.980194        -0.690259         2.247724
 H         3.393837        -2.643565         1.172771
 H         2.824926        -2.703793        -1.574464
 H         4.205885         0.061157        -0.680444
 H         4.222033        -0.772432        -2.447544
 H         1.919099        -0.669530        -3.354982
