19
Iteration:  3320charge 0 multiplicity 1
 C        -0.021527        -0.272038         0.254298
 C         1.508428        -0.027679         0.070177
 O         1.865507         1.440995         0.013790
 C         2.278494        -0.911301         1.024388
 C         2.937396        -1.944899         0.462032
 C         2.963785        -1.842142        -0.991812
 C         3.652525        -0.530934        -1.355036
 C         2.168970        -0.527225        -1.253575
 O         1.674038        -0.405604        -2.550990
 H        -0.459344         0.578125        -0.152322
 H        -0.362629        -1.282880        -0.295090
 H        -0.208500        -0.270398         1.361815
 H         1.576593         1.936271         0.764073
 H         2.163462        -0.768148         2.095534
 H         3.407057        -2.722203         0.988404
 H         2.944231        -2.700498        -1.758148
 H         4.202395        -0.020291        -0.584388
 H         3.988443        -0.341381        -2.440590
 H         1.381364         0.509025        -2.707337
