19
Iteration:  3228
 C        -0.036430        -0.116776         0.058340
 C         1.486090        -0.022859        -0.008657
 O         1.885990         1.334051         0.310651
 C         2.237889        -0.906097         1.062049
 C         3.037515        -1.865723         0.552729
 C         2.962499        -1.782140        -0.948778
 C         3.758867        -0.584248        -1.450145
 C         2.243230        -0.562254        -1.327271
 O         1.494129        -0.496767        -2.608709
 H        -0.796056         0.608657        -0.538227
 H        -0.426473        -1.073205        -0.008866
 H        -0.148845         0.116169         1.166999
 H         1.016569         1.808539         0.613638
 H         2.096366        -0.619041         2.092046
 H         3.722554        -2.445998         1.122711
 H         3.025771        -2.683838        -1.442059
 H         4.466325         0.006699        -0.830602
 H         4.063515        -0.627536        -2.489422
 H         1.741838         0.396484        -2.966636
