19
Iteration:  1673charge 0 multiplicity 1
 C         0.087227        -0.107934         0.037809
 C         1.625757        -0.008389         0.003634
 O         1.907593         1.375400         0.085272
 C         2.088962        -0.984678         1.075851
 C         2.808429        -2.018892         0.517078
 C         3.102974        -1.780748        -0.931160
 C         3.732212        -0.483519        -1.326951
 C         2.219902        -0.500117        -1.302652
 O         1.406447        -0.472635        -2.443813
 H        -0.417425         0.796432        -0.400372
 H        -0.380510        -0.934642        -0.426340
 H        -0.172122         0.037872         1.133268
 H         2.869969         1.408697        -0.010186
 H         1.814931        -1.012298         2.083901
 H         3.228697        -2.872909         1.062102
 H         3.185999        -2.542218        -1.730783
 H         4.101727         0.089694        -0.549249
 H         4.360583        -0.423936        -2.236896
 H         1.506938         0.427297        -2.858560
