19
Iteration:  1874
 C         0.043399        -0.083606        -0.035504
 C         1.560880         0.018579         0.009526
 O         1.870452         1.384867         0.239083
 C         2.187219        -0.909399         1.010195
 C         2.939408        -1.883980         0.560382
 C         3.025185        -1.867350        -0.972605
 C         3.773562        -0.600528        -1.423557
 C         2.187470        -0.655732        -1.304018
 O         1.388871        -0.397801        -2.458664
 H        -0.517143         0.814254        -0.395775
 H        -0.231022        -1.109849        -0.470941
 H        -0.244639        -0.088743         1.023192
 H         2.658395         1.357766         0.886799
 H         2.130976        -0.480445         1.995260
 H         3.399336        -2.751613         1.106668
 H         3.214261        -2.812183        -1.532066
 H         4.518470        -0.116268        -0.784909
 H         3.947254        -0.561860        -2.539019
 H         1.475879         0.549448        -2.697021
