19
Iteration:  4668
 C        -0.045408        -0.032120         0.009940
 C         1.614242        -0.059405         0.003608
 O         1.930740         1.309016         0.292447
 C         2.168667        -1.066801         1.004797
 C         2.949123        -1.994759         0.511565
 C         3.033365        -1.758076        -1.017109
 C         3.759663        -0.374338        -1.467798
 C         2.258193        -0.536323        -1.304331
 O         1.406459        -0.411091        -2.425786
 H        -0.627690        -0.823839        -0.383239
 H        -0.427757        -0.151853         1.055715
 H        -0.449442         0.838737        -0.307505
 H         2.790349         1.514353        -0.292358
 H         1.922376        -0.894570         2.074156
 H         3.407850        -2.720976         1.139825
 H         3.259877        -2.584353        -1.613746
 H         4.244652         0.159406        -0.662811
 H         4.070259        -0.134577        -2.515497
 H         0.678199        -0.895740        -2.035066
