19
Iteration:   550charge 0 multiplicity 1
 C         0.071206        -0.108005        -0.195728
 C         1.582258         0.010639         0.023915
 O         1.959021         1.393515         0.426773
 C         2.115508        -0.920054         1.093529
 C         2.817082        -1.970878         0.577667
 C         3.125161        -1.815222        -0.909231
 C         3.734721        -0.492941        -1.361032
 C         2.216417        -0.565828        -1.364015
 O         1.448571        -0.431780        -2.559597
 H        -0.416761         0.444806         0.575547
 H        -0.343041         0.240797        -1.117796
 H        -0.379212        -1.123656        -0.008317
 H         1.914438         1.930086        -0.458571
 H         1.973046        -0.758084         2.202955
 H         3.115530        -2.819412         1.225094
 H         3.340115        -2.580020        -1.634009
 H         4.263865         0.258307        -0.673648
 H         4.098649        -0.497409        -2.382237
 H         1.084263        -1.319491        -2.760450
