19
Iteration:  1177
 C        -0.006241        -0.029832        -0.128265
 C         1.469945         0.038666         0.025680
 O         1.887680         1.402956         0.310037
 C         2.057753        -1.091137         1.067256
 C         3.053653        -1.903221         0.588075
 C         3.019479        -1.794421        -0.952444
 C         3.777195        -0.478201        -1.406974
 C         2.184626        -0.633581        -1.276585
 O         1.512201        -0.506977        -2.540069
 H        -0.323793         0.646131        -0.930020
 H        -0.490202        -0.983282        -0.100002
 H        -0.547314         0.471134         0.731491
 H         2.783393         1.439357         0.503828
 H         1.709176        -1.082309         2.068777
 H         3.514933        -2.644779         1.154030
 H         3.145260        -2.786963        -1.374320
 H         4.503238         0.013131        -0.788409
 H         4.054734        -0.303102        -2.485510
 H         1.686257         0.401173        -2.883619
