19
Iteration:   216
 C        -0.013568        -0.144226        -0.144951
 C         1.513912        -0.024111         0.026644
 O         1.992684         1.365396         0.070322
 C         2.049211        -0.981481         1.029629
 C         2.936610        -1.954546         0.624188
 C         3.079025        -1.795458        -0.866880
 C         3.741149        -0.475013        -1.377699
 C         2.221026        -0.547654        -1.223323
 O         1.446724        -0.363570        -2.398880
 H        -0.498416        -0.207330         0.832222
 H        -0.572782         0.419170        -0.864822
 H        -0.157568        -1.175183        -0.631203
 H         2.524359         1.557141         0.803434
 H         1.840116        -0.948138         2.075321
 H         3.112394        -2.844497         1.246125
 H         2.911207        -2.738213        -1.427473
 H         4.552543         0.129413        -0.948093
 H         3.961714        -0.473761        -2.456063
 H         2.080809         0.138289        -2.966992
