19
Iteration:  1406
 C        -0.073119         0.017725         0.066836
 C         1.467985        -0.028560         0.026922
 O         2.107911         1.288070         0.168330
 C         2.088990        -1.046399         1.081543
 C         2.923779        -1.951076         0.485748
 C         3.049253        -1.825766        -0.992553
 C         3.649442        -0.403767        -1.341223
 C         2.165772        -0.615264        -1.236246
 O         1.569233        -0.461741        -2.551383
 H        -0.501710         0.601978        -0.771499
 H        -0.349928        -1.093140         0.075758
 H        -0.365922         0.175098         1.107718
 H         1.384487         1.940959         0.044828
 H         1.716991        -0.930151         2.109525
 H         3.701943        -2.418410         1.138693
 H         3.357407        -2.675691        -1.595932
 H         4.284798         0.138825        -0.572127
 H         3.900700        -0.293824        -2.361044
 H         1.893655         0.370212        -2.927499
