19
Iteration:   101
 C         0.070359        -0.124643        -0.055210
 C         1.598061        -0.036364        -0.050873
 O         1.985443         1.342482         0.116367
 C         2.056082        -0.969354         0.994252
 C         2.840830        -1.900840         0.573011
 C         3.063192        -1.822589        -0.953059
 C         3.747258        -0.455077        -1.297315
 C         2.251906        -0.636564        -1.314863
 O         1.399201        -0.426466        -2.406961
 H        -0.298955        -0.013140         1.010602
 H        -0.352885         0.647800        -0.733400
 H        -0.210338        -1.024800        -0.485883
 H         1.932666         1.482886         1.086582
 H         2.116149        -0.509178         1.984677
 H         3.383409        -2.553136         1.297765
 H         3.238870        -2.709829        -1.607046
 H         4.232372         0.038995        -0.468932
 H         4.085406        -0.395663        -2.340971
 H         1.301506         0.528441        -2.637961
