19
Iteration:  1144
 C         0.014086        -0.091452        -0.091257
 C         1.535716         0.029150        -0.017392
 O         1.786682         1.290921         0.452128
 C         2.115348        -0.857928         1.048035
 C         2.856428        -1.853213         0.603424
 C         2.992852        -1.786080        -0.958415
 C         3.876732        -0.554333        -1.503347
 C         2.285109        -0.504689        -1.368027
 O         1.487747        -0.538625        -2.527625
 H        -0.318628         0.843552        -0.569609
 H        -0.536111        -0.833281        -0.636832
 H        -0.214067        -0.064234         1.023971
 H         2.495735         1.065085         1.122121
 H         1.980067        -0.466575         2.026492
 H         3.398855        -2.598286         1.095579
 H         3.121288        -2.727383        -1.492868
 H         4.632701        -0.054536        -0.892199
 H         3.960121        -0.761876        -2.563753
 H         2.078805        -0.206528        -3.242060
