19
Iteration:  2600
 C         0.061453         0.009621        -0.044685
 C         1.570736        -0.085414         0.062930
 O         1.984207         1.371421         0.077767
 C         2.100185        -1.089439         1.068083
 C         2.949408        -1.963240         0.498788
 C         3.118993        -1.776911        -0.925065
 C         3.666527        -0.362187        -1.360837
 C         2.159862        -0.555643        -1.251541
 O         1.379097        -0.533812        -2.373067
 H        -0.296884         0.861548        -0.669333
 H        -0.224704        -0.860081        -0.492525
 H        -0.310998         0.074159         0.962068
 H         2.837561         1.379729        -0.284643
 H         1.797860        -0.730083         2.090178
 H         3.309811        -2.933351         0.919185
 H         3.263347        -2.610715        -1.568200
 H         4.356088         0.150006        -0.665854
 H         4.040548        -0.413682        -2.355583
 H         1.000525         0.363062        -2.563184
