19
Iteration:  1513
 C        -0.020820        -0.140304         0.132102
 C         1.469055        -0.019242        -0.039159
 O         2.017635         1.288888         0.299664
 C         2.183558        -0.877285         1.006069
 C         2.862453        -1.894132         0.539995
 C         3.007015        -1.834734        -0.965254
 C         3.789777        -0.531152        -1.335511
 C         2.131448        -0.660069        -1.347971
 O         1.520417        -0.365817        -2.591218
 H        -0.482635         0.622472        -0.456049
 H        -0.328590        -1.096214        -0.299003
 H        -0.309186         0.137196         1.124853
 H         1.863427         1.920099        -0.402912
 H         1.983163        -0.670978         2.037275
 H         3.284762        -2.606267         1.250382
 H         3.166439        -2.789246        -1.498795
 H         4.420587        -0.124309        -0.598178
 H         4.053463        -0.435360        -2.407773
 H         1.786856         0.559855        -2.753142
