19
Iteration:  2848
 C        -0.086411        -0.067128         0.010084
 C         1.529298         0.001535         0.033385
 O         1.903620         1.368931         0.320854
 C         2.139223        -1.003202         1.034771
 C         3.013690        -1.863257         0.542779
 C         3.148769        -1.768775        -0.957266
 C         3.755153        -0.513525        -1.483705
 C         2.175506        -0.731568        -1.385692
 O         1.370755        -0.436612        -2.473531
 H        -0.304982         0.310427        -1.071841
 H        -0.398254        -1.056201         0.176552
 H        -0.491619         0.589020         0.819240
 H         2.823857         1.350771         0.702579
 H         2.029912        -0.809113         2.095331
 H         3.653894        -2.484663         1.184073
 H         3.261442        -2.708641        -1.516959
 H         4.366822         0.174153        -0.892908
 H         4.069692        -0.581540        -2.532098
 H         1.601282         0.455182        -2.837204
