19
Iteration:  2049
 C         0.023261        -0.052820        -0.070509
 C         1.580979         0.026334         0.056436
 O         1.821776         1.430695         0.522690
 C         2.188410        -0.904504         1.049123
 C         2.945323        -1.892677         0.460497
 C         2.959806        -1.833860        -0.995104
 C         3.771764        -0.603302        -1.615956
 C         2.264998        -0.497533        -1.327347
 O         1.468343        -0.487576        -2.474312
 H        -0.283693         0.599703        -0.950552
 H        -0.276170        -1.049207        -0.318680
 H        -0.418184         0.176771         0.931190
 H         2.720961         1.597478         0.338541
 H         2.119788        -0.478140         2.145804
 H         3.248820        -2.725946         1.114786
 H         2.736422        -2.776046        -1.437641
 H         4.606100        -0.153674        -0.971397
 H         3.969189        -0.936042        -2.600026
 H         1.232116        -1.421890        -2.490027
