19
Iteration:  3199charge 0 multiplicity 1
 C         0.026161        -0.097036         0.130141
 C         1.547148        -0.024823        -0.013416
 O         2.018715         1.358516         0.205649
 C         2.145349        -0.949918         1.038585
 C         2.879176        -1.929453         0.505873
 C         3.126910        -1.747519        -1.006599
 C         3.671468        -0.387003        -1.332959
 C         2.207359        -0.571177        -1.305178
 O         1.482946        -0.611577        -2.574372
 H        -0.473709         0.682293        -0.313587
 H        -0.406300        -1.085933        -0.178281
 H        -0.118350         0.011242         1.224868
 H         1.218166         1.873711         0.069637
 H         1.731472        -0.782615         2.026241
 H         3.333248        -2.763680         1.114510
 H         3.296545        -2.619105        -1.617561
 H         4.219035         0.088442        -0.460530
 H         3.950178        -0.345605        -2.362473
 H         1.107854         0.275411        -2.593167
