19
Iteration:   919charge 0 multiplicity 1
 C        -0.063555         0.085592         0.009154
 C         1.527770        -0.002123        -0.043570
 O         1.938497         1.323214         0.198529
 C         2.087311        -0.979875         1.118096
 C         2.866859        -1.940943         0.541928
 C         3.054749        -1.752724        -0.914522
 C         3.759904        -0.458985        -1.242932
 C         2.236526        -0.600702        -1.338822
 O         1.576214        -0.602061        -2.703016
 H        -0.280596         0.944057         0.739447
 H        -0.725106         0.085336        -0.919451
 H        -0.303131        -0.850188         0.568387
 H         2.749312         1.204609         0.620988
 H         1.993437        -0.769912         2.215939
 H         3.392401        -2.672001         1.168934
 H         3.104457        -2.691533        -1.459002
 H         4.269647         0.029699        -0.322691
 H         4.151384        -0.303428        -2.204702
 H         0.895987         0.085606        -2.688301
