19
Iteration:  3173
 C         0.046341        -0.100496        -0.002562
 C         1.592546        -0.008457         0.058651
 O         2.074436         1.355582         0.151959
 C         2.139250        -1.068462         1.147226
 C         2.886710        -2.059032         0.450692
 C         3.053558        -1.654676        -1.000080
 C         3.660808        -0.222721        -1.345963
 C         2.229446        -0.476178        -1.291925
 O         1.378537        -0.712240        -2.409015
 H        -0.189145         0.712227        -0.830310
 H        -0.218717        -1.037081        -0.358985
 H        -0.477807         0.178596         0.926221
 H         1.397653         1.827005        -0.378214
 H         1.888964        -0.798091         2.200482
 H         3.419675        -2.861460         0.885334
 H         3.126279        -2.452156        -1.751290
 H         3.955127         0.294560        -0.502503
 H         4.217107        -0.455703        -2.273749
 H         1.451197         0.177661        -2.774996
