19
Iteration:   947charge 0 multiplicity 1
 C        -0.042563         0.009040        -0.110270
 C         1.501998        -0.044497         0.013084
 O         1.932580         1.309529         0.258033
 C         2.066194        -0.973785         1.022202
 C         2.963134        -1.888046         0.563421
 C         3.013098        -1.737905        -0.891757
 C         3.722435        -0.547047        -1.392054
 C         2.193544        -0.609924        -1.260283
 O         1.573263        -0.482949        -2.483780
 H        -0.475451         0.965283         0.003700
 H        -0.343425        -0.485101        -1.014208
 H        -0.571332        -0.446764         0.759432
 H         2.820614         1.271534        -0.085256
 H         1.781780        -0.813891         2.045066
 H         3.533302        -2.507960         1.289750
 H         3.045033        -2.730540        -1.367428
 H         4.235329         0.063389        -0.738368
 H         3.946265        -0.516123        -2.506054
 H         2.032821         0.285825        -2.887290
