19
Iteration:  3569
 C        -0.016048        -0.319901         0.066514
 C         1.518495         0.014792         0.017193
 O         1.797608         1.443504         0.268156
 C         2.259229        -0.891673         1.124675
 C         2.938690        -1.882900         0.534874
 C         2.945029        -1.792293        -0.976080
 C         3.776401        -0.684272        -1.501779
 C         2.223055        -0.462395        -1.297457
 O         1.562418        -0.346580        -2.561583
 H        -0.441480        -0.028256        -0.906132
 H        -0.265588        -1.323177         0.312030
 H        -0.486989         0.133351         0.961543
 H         1.231769         1.604304         1.029798
 H         2.277858        -0.502748         2.135104
 H         3.684195        -2.550683         1.012352
 H         2.656907        -2.608916        -1.568224
 H         4.743464        -0.435797        -1.003117
 H         3.995344        -0.874268        -2.564708
 H         2.218971         0.079313        -3.116158
