19
Iteration:   132charge 0 multiplicity 1
 C        -0.025973        -0.131491         0.050898
 C         1.552223        -0.004221         0.057125
 O         1.862554         1.407943         0.254020
 C         2.143170        -0.901373         1.163601
 C         2.894379        -1.903082         0.545205
 C         2.975699        -1.745922        -0.955277
 C         3.747530        -0.560883        -1.404543
 C         2.165696        -0.509748        -1.308347
 O         1.673655        -0.540328        -2.658340
 H        -0.543439        -0.606056         0.924370
 H        -0.238517         0.940608        -0.070465
 H        -0.264403        -0.738849        -0.783515
 H         2.852132         1.480453         0.043009
 H         1.878680        -0.932084         2.216226
 H         3.075649        -2.837503         1.121993
 H         2.939042        -2.683853        -1.564100
 H         4.572399        -0.308279        -0.733341
 H         3.868456        -0.404933        -2.461252
 H         0.967254         0.102439        -2.793683
