19
Iteration:     5charge 0 multiplicity 1
 C         0.004598        -0.099711        -0.023242
 C         1.567126        -0.038955        -0.009047
 O         1.976992         1.325258         0.228624
 C         2.122608        -0.977092         1.071360
 C         2.920671        -1.925956         0.508268
 C         3.084912        -1.762204        -0.950394
 C         3.728344        -0.454190        -1.382797
 C         2.185516        -0.524557        -1.332465
 O         1.474297        -0.432923        -2.513041
 H        -0.300403         0.310324         0.994603
 H        -0.392383         0.506512        -0.867807
 H        -0.367991        -1.091620        -0.196827
 H         1.783326         1.688905         1.147373
 H         2.007273        -0.923896         2.143896
 H         3.581236        -2.530760         1.153459
 H         3.039827        -2.573047        -1.702631
 H         4.284352         0.205658        -0.658900
 H         4.071966        -0.478549        -2.404391
 H         0.828892        -1.184801        -2.431468
