19
Iteration:  1868
 C         0.020138        -0.069783         0.048503
 C         1.548949        -0.004185        -0.012090
 O         1.863580         1.403177         0.228584
 C         2.156151        -0.939685         1.014671
 C         2.964202        -1.902956         0.535960
 C         3.043733        -1.894316        -0.962248
 C         3.716683        -0.616393        -1.450406
 C         2.235610        -0.608924        -1.264791
 O         1.426417        -0.403815        -2.484866
 H        -0.480206         0.788125        -0.386160
 H        -0.385591        -0.892868        -0.457791
 H        -0.322565        -0.305376         1.085556
 H         2.667129         1.589951         0.787066
 H         2.206735        -0.476840         2.020429
 H         3.222596        -2.661293         1.245942
 H         3.211133        -2.729243        -1.611031
 H         4.417867        -0.012871        -0.878311
 H         3.991181        -0.503273        -2.505488
 H         1.713803         0.455174        -2.902156
