19
Iteration:  3578
 C         0.005403        -0.349284         0.130870
 C         1.571314        -0.044743         0.010523
 O         1.775729         1.419940         0.223790
 C         2.214648        -0.835603         1.025811
 C         2.921802        -1.873390         0.545732
 C         2.869189        -1.839495        -0.985704
 C         3.762020        -0.665212        -1.469022
 C         2.294300        -0.489835        -1.281956
 O         1.577408        -0.311900        -2.536258
 H        -0.463820         0.103770        -0.876249
 H        -0.105599        -1.367727         0.146709
 H        -0.356601         0.319777         0.994515
 H         1.499008         1.599829         1.128377
 H         2.283470        -0.470404         2.073862
 H         3.675830        -2.410569         1.043492
 H         2.910005        -2.691875        -1.580230
 H         4.462594        -0.271651        -0.670017
 H         3.912670        -0.732046        -2.518527
 H         1.979841         0.177980        -3.246282
