19
Iteration:  1681
 C         0.065992        -0.103042         0.074659
 C         1.584929        -0.023153         0.038094
 O         1.945722         1.432104         0.078136
 C         2.076850        -1.016341         1.051329
 C         2.801108        -2.011311         0.498581
 C         3.054142        -1.796916        -0.959313
 C         3.686767        -0.394213        -1.359017
 C         2.236217        -0.557602        -1.323767
 O         1.490528        -0.493577        -2.436300
 H        -0.318688         0.679946        -0.598659
 H        -0.242371        -1.111117        -0.208198
 H        -0.265693        -0.028894         1.087135
 H         2.913340         1.491039         0.313419
 H         1.983707        -0.804157         2.113172
 H         3.005295        -2.949940         0.963552
 H         3.145509        -2.755102        -1.427742
 H         4.263182         0.066378        -0.495264
 H         4.304689        -0.345797        -2.242281
 H         1.270034         0.382052        -2.812150
