19
Iteration:  2684
 C         0.065820        -0.130680        -0.024959
 C         1.646810         0.068827         0.038388
 O         1.808541         1.466983         0.395267
 C         2.242242        -0.892523         0.989269
 C         2.832594        -1.944769         0.446500
 C         3.009020        -1.783485        -1.027407
 C         3.773662        -0.629475        -1.459450
 C         2.257133        -0.472617        -1.315942
 O         1.405058        -0.596298        -2.457664
 H        -0.627296         0.142157        -0.888655
 H        -0.119628        -1.191286         0.302874
 H        -0.356886         0.333476         0.859012
 H         2.750470         1.662836         0.703721
 H         1.957242        -0.826606         2.065939
 H         3.302511        -2.706858         1.102828
 H         2.974185        -2.678483        -1.609465
 H         4.464735        -0.041741        -0.815408
 H         4.117690        -0.695408        -2.468573
 H         1.301868         0.298801        -2.795493
