19
Iteration:  2234
 C         0.106203        -0.181734        -0.039255
 C         1.626237        -0.032259         0.022540
 O         1.791633         1.376476         0.109998
 C         2.214401        -0.865907         1.108516
 C         2.905052        -1.915908         0.571551
 C         2.947888        -1.806643        -0.987212
 C         3.788061        -0.641865        -1.472734
 C         2.278221        -0.491539        -1.232687
 O         1.391201        -0.391113        -2.362268
 H        -0.179438         0.561946        -0.756772
 H        -0.094731        -1.043820        -0.554559
 H        -0.463899        -0.160506         0.890555
 H         2.714888         1.437534         0.269422
 H         2.245016        -0.521694         2.077229
 H         3.167957        -2.870577         0.895586
 H         2.761664        -2.780129        -1.545373
 H         4.526426        -0.331624        -0.763558
 H         3.931832        -0.559055        -2.597832
 H         1.181390         0.545410        -2.308629
