19
Iteration:  4270charge 0 multiplicity 1
 C        -0.020120         0.065444         0.082267
 C         1.487709        -0.050254         0.089120
 O         1.990186         1.303592         0.430685
 C         2.143812        -1.124378         1.053234
 C         2.915530        -2.017472         0.432971
 C         3.144159        -1.647200        -0.969771
 C         3.629229        -0.233305        -1.470994
 C         2.180513        -0.541342        -1.348665
 O         1.484061        -0.682191        -2.580434
 H        -0.520801        -0.806195         0.727195
 H        -0.422373         0.900319         0.578355
 H        -0.560388         0.026414        -0.971956
 H         2.807775         1.578057        -0.065001
 H         1.713937        -1.093754         2.032174
 H         3.443624        -2.897297         0.842062
 H         3.194367        -2.497331        -1.703890
 H         4.199761         0.383577        -0.697823
 H         4.202936        -0.236195        -2.446964
 H         1.696996         0.081516        -3.093380
