19
Iteration:   926charge 0 multiplicity 1
 C        -0.022056         0.063200        -0.006304
 C         1.509520        -0.025852        -0.067116
 O         1.947803         1.328341         0.206458
 C         2.026452        -1.007223         1.152930
 C         2.915431        -1.853299         0.546152
 C         3.038602        -1.817608        -0.921014
 C         3.715285        -0.459360        -1.256218
 C         2.231626        -0.584472        -1.291342
 O         1.578173        -0.586262        -2.710084
 H        -0.367597         0.895971         0.542536
 H        -0.606180        -0.004217        -0.845928
 H        -0.405954        -0.658114         0.715267
 H         2.846251         1.389855         0.539265
 H         1.973344        -0.933414         2.231898
 H         3.596388        -2.578024         1.069738
 H         3.077309        -2.722829        -1.554511
 H         4.263842        -0.174648        -0.426350
 H         4.226706        -0.336686        -2.246601
 H         1.116758         0.267500        -2.650181
