19
Iteration:   605
 C        -0.092755         0.055072         0.038299
 C         1.474707        -0.043148        -0.009631
 O         2.018222         1.240615         0.182085
 C         2.041809        -0.999042         0.985875
 C         2.942541        -1.901053         0.549173
 C         3.127396        -1.774969        -0.888136
 C         3.746009        -0.448856        -1.252165
 C         2.192673        -0.678773        -1.385633
 O         1.623645        -0.450303        -2.579135
 H        -0.553695         0.730283         0.746202
 H        -0.502961         0.404195        -0.907183
 H        -0.605990        -0.897321         0.297147
 H         1.383361         1.732590         0.812749
 H         1.874859        -0.657393         1.978034
 H         3.693979        -2.357048         1.137581
 H         3.384060        -2.520327        -1.597453
 H         4.153683         0.372177        -0.543479
 H         4.213436        -0.624570        -2.209352
 H         0.631784        -0.537843        -2.609138
