19
Iteration:   529charge 0 multiplicity 1
 C         0.085365        -0.126304        -0.127031
 C         1.614907         0.014447        -0.029368
 O         1.880966         1.378805         0.380443
 C         2.191268        -0.852946         0.998691
 C         2.778531        -1.962999         0.494898
 C         2.931901        -1.755480        -0.896563
 C         3.792239        -0.471960        -1.318489
 C         2.283680        -0.493433        -1.353267
 O         1.470166        -0.548428        -2.474546
 H        -0.394841        -0.155863         0.825294
 H        -0.312978         0.689102        -0.709754
 H        -0.201293        -1.102715        -0.570349
 H         2.397146         1.931451        -0.164490
 H         1.876325        -0.668776         2.065579
 H         3.193269        -2.815250         1.052783
 H         2.879598        -2.539110        -1.619639
 H         4.235974        -0.197634        -0.301614
 H         4.404676        -0.420156        -2.212830
 H         1.284050        -1.405491        -2.864303
