19
Iteration:  2292
 C         0.053734        -0.054186         0.289155
 C         1.525030        -0.041613         0.077196
 O         1.916255         1.315706         0.157788
 C         2.186391        -0.940298         1.066009
 C         2.820700        -1.966289         0.470143
 C         2.960246        -1.728927        -0.999300
 C         3.652687        -0.382883        -1.434944
 C         2.194217        -0.563019        -1.322346
 O         1.603849        -0.580196        -2.588632
 H        -0.424480         0.593569        -0.406039
 H        -0.451834        -1.063765         0.410648
 H        -0.206661         0.476712         1.214001
 H         2.885193         1.289271        -0.142061
 H         1.695196        -0.826070         2.104201
 H         3.422156        -2.795804         0.958481
 H         3.097082        -2.440945        -1.765366
 H         4.304673         0.106599        -0.653524
 H         4.175218        -0.482620        -2.340662
 H         1.577974         0.304559        -3.026659
