19
Iteration:  3456
 C        -0.046952         0.066682         0.111693
 C         1.462022        -0.078287         0.014539
 O         1.900158         1.335667         0.272241
 C         2.119779        -0.997226         1.085650
 C         3.019454        -1.887789         0.494859
 C         3.192412        -1.657590        -1.016000
 C         3.727308        -0.361332        -1.418995
 C         2.190803        -0.626676        -1.338849
 O         1.454722        -0.717809        -2.572401
 H        -0.164341         1.261836         0.007463
 H        -0.771112        -0.384133        -0.477964
 H        -0.225859        -0.227856         1.161864
 H         2.615442         1.161085         0.897375
 H         1.797546        -1.051327         2.093766
 H         3.495921        -2.795167         0.967707
 H         3.181877        -2.658347        -1.592162
 H         4.057758         0.292863        -0.679944
 H         3.878662        -0.295784        -2.520753
 H         1.592233         0.117250        -3.040421
