19
Iteration:   362charge 0 multiplicity 1
 C        -0.077553        -0.118253        -0.145724
 C         1.505218        -0.086450        -0.065877
 O         1.887720         1.361227         0.241983
 C         2.099367        -0.957052         1.022821
 C         3.042888        -1.891921         0.572548
 C         2.928614        -1.784629        -0.852015
 C         3.743369        -0.471434        -1.355860
 C         2.245751        -0.591828        -1.273683
 O         1.505924        -0.359141        -2.457464
 H        -0.385422         0.601836         0.617857
 H        -0.308012         0.088289        -1.207627
 H        -0.444058        -1.087606         0.123632
 H         2.651813         1.038460         0.880603
 H         2.133745        -0.600584         2.040867
 H         3.603304        -2.684040         1.060503
 H         3.020189        -2.569034        -1.587597
 H         4.479325        -0.110780        -0.601867
 H         4.059549        -0.548019        -2.341866
 H         2.143540        -0.525057        -3.146063
