19
Iteration:  3432charge 0 multiplicity 1
 C        -0.016821         0.027528        -0.053726
 C         1.501274        -0.028879         0.030731
 O         1.973252         1.324627         0.398327
 C         2.122204        -1.020255         0.970415
 C         3.055318        -1.860755         0.522419
 C         3.118307        -1.740837        -0.997762
 C         3.667737        -0.343006        -1.482219
 C         2.232589        -0.545002        -1.363488
 O         1.373906        -0.723141        -2.473940
 H        -0.272394         0.943863        -0.621904
 H        -0.653807        -0.801688        -0.472450
 H        -0.361991         0.073118         0.953436
 H         1.982665         1.218459         1.434243
 H         2.000596        -0.863179         2.031040
 H         3.743380        -2.389787         1.249684
 H         3.246467        -2.563497        -1.658537
 H         4.167640         0.184063        -0.710967
 H         4.125623        -0.644639        -2.357388
 H         1.414430         0.154033        -2.941938
