19
Iteration:  2120
 C         0.046354        -0.139901         0.102895
 C         1.574086        -0.061822        -0.050983
 O         1.974225         1.308209        -0.007992
 C         2.109683        -1.001949         1.035686
 C         2.875200        -1.987401         0.532957
 C         3.083643        -1.798663        -0.892716
 C         3.763464        -0.371746        -1.339001
 C         2.236670        -0.545402        -1.283054
 O         1.367611        -0.379607        -2.405429
 H        -0.296435         0.535454        -0.651732
 H        -0.546260        -1.096578        -0.105210
 H        -0.288258         0.213141         1.067584
 H         2.891545         1.282329        -0.168284
 H         1.968016        -0.745022         2.049117
 H         3.173927        -2.766504         1.254038
 H         3.161407        -2.475506        -1.761185
 H         4.345382         0.066066        -0.593894
 H         4.148232        -0.577432        -2.347730
 H         0.818370         0.397286        -2.188060
