19
Iteration:  2031charge 0 multiplicity 1
 C         0.116543        -0.118818        -0.132132
 C         1.613045         0.118766        -0.064085
 O         1.855401         1.392699         0.448706
 C         2.156134        -0.886022         1.063432
 C         2.934328        -1.915097         0.522885
 C         3.003776        -1.793027        -0.979091
 C         3.825420        -0.692889        -1.513126
 C         2.240387        -0.522140        -1.329450
 O         1.288070        -0.417442        -2.383318
 H        -0.203204         0.480953        -0.988014
 H        -0.154801        -1.157196        -0.324177
 H        -0.310473         0.201299         0.909932
 H         2.757884         1.565908         0.407322
 H         1.871064        -1.037900         2.122416
 H         3.579151        -2.575956         1.085047
 H         2.891678        -2.637242        -1.700477
 H         4.447105        -0.120852        -0.797744
 H         4.150419        -0.548944        -2.520893
 H         1.106235        -1.241077        -2.835976
