19
Iteration:   130charge 0 multiplicity 1
 C        -0.034129        -0.132052         0.046405
 C         1.545490        -0.009478         0.056214
 O         1.870062         1.412128         0.235505
 C         2.159043        -0.904658         1.165853
 C         2.894448        -1.918931         0.547254
 C         2.978452        -1.734992        -0.942415
 C         3.744731        -0.558599        -1.413200
 C         2.171406        -0.512537        -1.312457
 O         1.661041        -0.527185        -2.645491
 H        -0.502798        -0.579964         0.930209
 H        -0.248899         0.927627        -0.100410
 H        -0.323590        -0.808926        -0.840981
 H         2.918283         1.409698         0.155640
 H         1.820854        -0.956023         2.191303
 H         3.090103        -2.822326         1.119875
 H         2.972780        -2.672123        -1.500368
 H         4.556905        -0.261965        -0.665231
 H         3.880604        -0.446890        -2.445805
 H         0.943994         0.120885        -2.843053
