19
Iteration:  2529charge 0 multiplicity 1
 C        -0.001276        -0.107868         0.051666
 C         1.588305        -0.021471         0.056454
 O         1.785813         1.385635         0.292681
 C         2.256167        -0.874973         1.126594
 C         2.953366        -1.826760         0.505708
 C         2.896894        -1.818613        -0.924691
 C         3.710659        -0.691169        -1.504730
 C         2.212791        -0.503829        -1.334170
 O         1.496238        -0.455931        -2.567890
 H        -0.448371         0.603909        -0.606603
 H        -0.280468        -1.162067        -0.390012
 H        -0.287267         0.050410         1.138455
 H         2.630968         1.488737         0.641065
 H         2.434916        -0.484475         2.099652
 H         3.421890        -2.651148         0.988895
 H         2.997320        -2.679924        -1.552049
 H         4.443672        -0.391972        -0.773259
 H         4.207984        -0.849683        -2.540597
 H         2.064532         0.150756        -3.108168
