19
Iteration:  3088charge 0 multiplicity 1
 C        -0.027921        -0.109103        -0.068439
 C         1.523157        -0.055656        -0.017620
 O         1.974745         1.374157         0.443808
 C         2.152588        -0.949410         1.042163
 C         3.052978        -1.864056         0.521849
 C         3.051937        -1.815424        -0.929480
 C         3.657956        -0.494906        -1.502288
 C         2.193060        -0.562143        -1.289654
 O         1.442844        -0.563582        -2.484598
 H        -0.436504         0.719855        -0.672624
 H        -0.395681        -1.018653        -0.450205
 H        -0.383809        -0.045990         0.991778
 H         1.643050         2.132053        -0.102746
 H         2.114995        -0.729780         2.141120
 H         3.825687        -2.371727         1.093679
 H         2.976007        -2.724215        -1.532660
 H         4.313458         0.187325        -1.026272
 H         3.828194        -0.356379        -2.632033
 H         1.705031         0.244709        -3.008596
