19
Iteration:  1349charge 0 multiplicity 1
 C         0.071825        -0.188970         0.020080
 C         1.528616         0.016462        -0.002419
 O         1.984967         1.494271         0.173887
 C         2.087162        -0.980198         1.000838
 C         2.821172        -1.973757         0.488611
 C         3.043881        -1.800118        -0.928003
 C         3.772123        -0.534252        -1.370964
 C         2.237424        -0.486096        -1.268910
 O         1.528384        -0.526929        -2.474097
 H        -0.529164         0.439672        -0.629686
 H        -0.202551        -1.179059        -0.228412
 H        -0.277087         0.114256         1.050149
 H         1.490144         1.885906         0.949273
 H         1.848400        -0.841851         2.095654
 H         3.130075        -2.965332         0.873495
 H         2.849970        -2.601239        -1.645663
 H         4.139331        -0.001733        -0.562152
 H         4.430055        -0.449723        -2.231245
 H         1.286351         0.294602        -2.929179
