19
Iteration:  3084charge 0 multiplicity 1
 C         0.015103        -0.117112        -0.051774
 C         1.539147        -0.026856        -0.039121
 O         1.964269         1.368947         0.424020
 C         2.165076        -0.945057         1.059944
 C         3.010632        -1.892478         0.514395
 C         3.072764        -1.802428        -0.947380
 C         3.699457        -0.498933        -1.474892
 C         2.190967        -0.567119        -1.259676
 O         1.412561        -0.555734        -2.493503
 H        -0.398000         0.758671        -0.673323
 H        -0.456546        -1.059989        -0.422367
 H        -0.406031        -0.131895         0.925044
 H         1.561232         2.054137        -0.177320
 H         2.097678        -0.559629         2.074541
 H         3.790367        -2.468527         1.054955
 H         3.008987        -2.748504        -1.598436
 H         4.251592         0.301663        -0.877879
 H         3.822693        -0.390394        -2.556441
 H         1.500231         0.231292        -3.027690
