19
Iteration:    40
 C         0.009876        -0.059352         0.059247
 C         1.564675         0.009289        -0.037073
 O         1.880498         1.300218         0.426022
 C         2.135617        -0.920143         0.987586
 C         2.893545        -1.842429         0.501487
 C         3.049958        -1.760851        -0.999284
 C         3.714882        -0.464532        -1.401984
 C         2.195300        -0.591705        -1.338143
 O         1.533521        -0.507391        -2.517179
 H        -0.394567         0.722392         0.703787
 H        -0.493060         0.147278        -0.905032
 H        -0.300410        -1.003121         0.657699
 H         2.715529         1.607257        -0.108672
 H         1.684332        -0.956887         2.034985
 H         3.193518        -2.754808         1.086872
 H         2.974062        -2.647748        -1.658147
 H         4.312842         0.075371        -0.705258
 H         4.179543        -0.392535        -2.455523
 H         1.850801        -1.111424        -3.232143
