19
Iteration:  1847charge 0 multiplicity 1
 C         0.026562        -0.063543         0.154876
 C         1.524615         0.009110         0.064895
 O         1.820950         1.390232         0.173040
 C         2.229500        -0.962890         1.117912
 C         2.915005        -1.975624         0.511168
 C         2.954231        -1.743260        -0.943197
 C         3.710502        -0.543844        -1.450848
 C         2.187284        -0.553532        -1.316630
 O         1.554131        -0.463252        -2.574172
 H        -0.408958         0.931243         0.088100
 H        -0.505750        -0.753363        -0.434658
 H        -0.212371        -0.439779         1.208432
 H         2.857489         1.405824         0.194642
 H         1.681047        -0.911782         2.078022
 H         3.529441        -2.749972         0.936293
 H         2.821255        -2.645766        -1.512097
 H         4.522523        -0.122783        -0.820482
 H         4.120812        -0.546764        -2.465374
 H         2.127665        -0.181342        -3.299295
