19
Iteration:  4759
 C         0.147019        -0.283719         0.093754
 C         1.676452         0.041854         0.050042
 O         1.605110         1.464185         0.335901
 C         2.294138        -0.889813         0.980916
 C         2.869947        -2.004807         0.417472
 C         2.914212        -1.875251        -0.985555
 C         3.762062        -0.611429        -1.494290
 C         2.277522        -0.567936        -1.349142
 O         1.531215        -0.223142        -2.478781
 H         0.104405        -1.306397         0.531819
 H        -0.225570         0.305992         0.826356
 H        -0.504429        -0.105854        -0.822197
 H         2.539303         1.966612         0.227603
 H         2.129112        -0.877902         2.033325
 H         3.264666        -2.827262         1.057494
 H         2.855285        -2.816826        -1.637484
 H         4.480757        -0.263517        -0.689368
 H         4.270025        -0.993596        -2.409958
 H         0.718669         0.179263        -2.179247
