19
Iteration:  3209
 C         0.012518        -0.119451         0.228933
 C         1.545132        -0.022700        -0.029095
 O         1.958208         1.339112         0.278467
 C         2.105930        -0.870829         1.018327
 C         2.901678        -1.829913         0.493732
 C         3.151115        -1.820889        -0.993431
 C         3.697592        -0.499055        -1.409829
 C         2.207335        -0.661137        -1.371437
 O         1.511695        -0.542353        -2.573854
 H        -0.371187         0.631177        -0.485490
 H        -0.465622        -0.978325        -0.246615
 H        -0.520368         0.068228         1.196660
 H         1.155182         1.939101         0.379106
 H         1.923563        -0.619564         2.063416
 H         3.453798        -2.609844         1.089142
 H         3.201882        -2.629792        -1.658163
 H         4.240498         0.138137        -0.624060
 H         4.324927        -0.355583        -2.247232
 H         1.208291         0.354549        -2.776876
