19
Iteration:  3104
 C        -0.064750        -0.047322        -0.052619
 C         1.481736        -0.003450         0.077348
 O         1.996601         1.227793         0.509627
 C         2.139870        -0.958631         1.089019
 C         3.165437        -1.688224         0.542895
 C         3.006384        -1.713044        -0.979924
 C         3.659356        -0.521111        -1.660443
 C         2.151782        -0.581840        -1.263487
 O         1.492553        -0.564338        -2.526495
 H        -0.392333         0.651507        -0.841522
 H        -0.411837        -1.122366        -0.389810
 H        -0.649585         0.109936         0.857563
 H         1.556293         1.764969        -0.264774
 H         1.757824        -0.930091         2.085004
 H         3.685585        -2.433452         1.173095
 H         2.974728        -2.678936        -1.525074
 H         4.318982        -0.115945        -0.847242
 H         3.981587        -0.833269        -2.591652
 H         1.995131        -0.056465        -3.189261
