19
Iteration:  4285
 C        -0.039057         0.067014         0.082379
 C         1.588577        -0.062482         0.051079
 O         1.983314         1.258581         0.416812
 C         1.952837        -1.148266         1.015942
 C         2.969742        -1.897165         0.395722
 C         3.109797        -1.624941        -1.080449
 C         3.713643        -0.242682        -1.444515
 C         2.195665        -0.492352        -1.318605
 O         1.474208        -0.763972        -2.436486
 H        -0.535107        -0.827927         0.434567
 H        -0.108894         1.077270         0.659888
 H        -0.209814         0.274442        -0.946791
 H         2.815502         1.359373        -0.203039
 H         1.758351        -1.386805         2.068796
 H         3.455226        -2.701375         0.946221
 H         3.193829        -2.364755        -1.811347
 H         4.108555         0.294900        -0.599070
 H         4.098781        -0.083514        -2.436328
 H         1.321289         0.050915        -2.991509
