19
Iteration:  4024
 C        -0.010212         0.147613         0.067672
 C         1.511305        -0.077006        -0.046624
 O         1.936940         1.287108         0.517013
 C         1.986794        -1.069881         0.937931
 C         2.975057        -1.821939         0.485890
 C         3.190451        -1.692164        -1.011382
 C         3.688645        -0.284888        -1.510940
 C         2.211081        -0.583672        -1.366247
 O         1.478407        -0.853945        -2.484830
 H        -0.293347         1.131048        -0.441822
 H        -0.630855        -0.687904        -0.120120
 H        -0.138995         0.401200         1.135723
 H         2.904313         1.266925         0.584454
 H         1.613366        -0.945226         1.953780
 H         3.757180        -2.370548         1.046327
 H         3.243651        -2.555866        -1.728048
 H         4.002671         0.528802        -0.770054
 H         4.042111        -0.275481        -2.594742
 H         1.329287        -0.050726        -3.036408
