19
Iteration:  4541charge 0 multiplicity 1
 C         0.058056        -0.136093         0.000067
 C         1.599768        -0.031125         0.014318
 O         1.985249         1.349122         0.326415
 C         2.162702        -1.017597         0.980138
 C         2.866151        -1.964534         0.481522
 C         3.135842        -1.699536        -0.989333
 C         3.679696        -0.328459        -1.429620
 C         2.222589        -0.602992        -1.389168
 O         1.289877        -0.457574        -2.390807
 H        -0.484049        -0.961342        -0.618089
 H        -0.290235        -0.053194         1.029385
 H        -0.438020         0.788862        -0.544267
 H         2.619272         1.330459         1.040177
 H         2.069162        -0.880169         2.130729
 H         3.511168        -2.739851         0.953489
 H         3.215192        -2.456825        -1.723451
 H         4.077473         0.239151        -0.566421
 H         4.372114        -0.205405        -2.345125
 H         1.357299        -1.148231        -3.124483
