19
Iteration:  1641
 C        -0.046122        -0.095871        -0.124517
 C         1.535899        -0.008728         0.019347
 O         1.939701         1.345392         0.321358
 C         2.155152        -0.950873         1.084817
 C         2.942533        -1.875899         0.526582
 C         3.041049        -1.882714        -0.946209
 C         3.708228        -0.599692        -1.423509
 C         2.237616        -0.534466        -1.293422
 O         1.435680        -0.395629        -2.420334
 H        -0.303534         0.976045        -0.365865
 H        -0.485784        -0.759231        -0.833288
 H        -0.515020        -0.316580         0.920975
 H         2.246148         1.677794        -0.540980
 H         2.245629        -0.623412         2.061487
 H         3.502680        -2.559658         1.180936
 H         3.111783        -2.703813        -1.663525
 H         4.063364        -0.091132        -0.597409
 H         4.305360        -0.516251        -2.349375
 H         2.040122        -0.093581        -3.119328
