19
Iteration:  2095
 C         0.011811        -0.045605         0.104162
 C         1.554820         0.000110        -0.052816
 O         1.948218         1.342514         0.185222
 C         2.155961        -0.937228         1.071206
 C         2.945203        -1.888375         0.476163
 C         3.023694        -1.830985        -0.974673
 C         3.698903        -0.479522        -1.323872
 C         2.174450        -0.656847        -1.338793
 O         1.490200        -0.449469        -2.549993
 H        -0.610840         0.655054        -0.491795
 H        -0.408646        -1.040183        -0.101937
 H        -0.201190         0.126101         1.228880
 H         2.931504         1.318485         0.297886
 H         2.096553        -0.776079         2.144762
 H         3.338792        -2.627617         1.117166
 H         3.380805        -2.600218        -1.672328
 H         4.090301        -0.047994        -0.422125
 H         4.097105        -0.328619        -2.334763
 H         0.609141        -0.096723        -2.262611
