19
Iteration:   291
 C         0.001477        -0.114837         0.000526
 C         1.520803         0.015966         0.050997
 O         1.879619         1.437343         0.340212
 C         2.024191        -0.983130         1.044102
 C         2.787321        -1.888327         0.491329
 C         2.980371        -1.773286        -0.994984
 C         3.872015        -0.443788        -1.368896
 C         2.241083        -0.525779        -1.304985
 O         1.650030        -0.623399        -2.573214
 H        -0.472779         0.774144         0.439932
 H        -0.397663        -0.352177        -0.973320
 H        -0.458598        -0.951334         0.688446
 H         2.822224         1.539589        -0.115090
 H         1.923309        -0.886627         2.095459
 H         3.239281        -2.760011         0.931993
 H         2.950417        -2.644559        -1.711208
 H         4.553840        -0.087276        -0.574667
 H         4.353146        -0.359631        -2.402653
 H         1.001608         0.072954        -2.451546
