19
Iteration:  2518charge 0 multiplicity 1
 C         0.070743        -0.167611        -0.009517
 C         1.556502         0.009784         0.081847
 O         1.780369         1.376034         0.249334
 C         2.284518        -0.860394         1.117746
 C         2.980431        -1.878455         0.575889
 C         2.874960        -1.827269        -0.967469
 C         3.709645        -0.675508        -1.527319
 C         2.198552        -0.547163        -1.292442
 O         1.506841        -0.369039        -2.491084
 H        -0.085638         0.505683        -0.820252
 H        -0.362221        -1.232821        -0.231377
 H        -0.631302         0.231952         0.783435
 H         2.670215         1.506847         0.648137
 H         2.212406        -0.649807         2.187763
 H         3.532116        -2.583301         1.169008
 H         2.721058        -2.757953        -1.478628
 H         4.503320        -0.075279        -1.101086
 H         3.792821        -0.950281        -2.663147
 H         2.054074         0.067306        -3.150265
