19
Iteration:  1830
 C        -0.001885        -0.111515         0.226491
 C         1.599101        -0.013476         0.019935
 O         1.885660         1.389326         0.219053
 C         2.160877        -0.961229         1.072095
 C         2.865258        -1.907820         0.516878
 C         2.939481        -1.822931        -1.001974
 C         3.755166        -0.495589        -1.360908
 C         2.178760        -0.467552        -1.320661
 O         1.501435        -0.512067        -2.605480
 H        -0.376337         0.909233         0.122130
 H        -0.237411        -0.795590        -0.667871
 H        -0.306856        -0.450832         1.193381
 H         2.690883         1.576379        -0.410350
 H         2.346775        -0.799836         2.127520
 H         3.184463        -2.813778         1.013876
 H         2.954794        -2.614297        -1.767873
 H         4.279401         0.003750        -0.494985
 H         4.120664        -0.445606        -2.365626
 H         2.293095        -0.431793        -3.173063
