19
Iteration:  3140charge 0 multiplicity 1
 C         0.004139        -0.028169        -0.100421
 C         1.606576        -0.030458        -0.021701
 O         1.975286         1.269353         0.476027
 C         2.123666        -0.970989         0.971057
 C         3.022728        -1.863340         0.582253
 C         3.136154        -1.769128        -0.931096
 C         3.670808        -0.401652        -1.514706
 C         2.198888        -0.575615        -1.360545
 O         1.305823        -0.608578        -2.400488
 H        -0.496247         0.518426        -0.998094
 H        -0.317703        -1.026656        -0.135191
 H        -0.348246         0.434463         0.808722
 H         1.738737         2.104424        -0.068050
 H         1.780771        -0.654883         1.976450
 H         3.635483        -2.599061         1.078540
 H         3.250579        -2.602859        -1.691461
 H         4.150044         0.308500        -0.903687
 H         4.345741        -0.494735        -2.407545
 H         1.720594        -0.090997        -3.135569
