19
Iteration:  2781
 C         0.052920        -0.152170         0.113270
 C         1.604182         0.028264        -0.051615
 O         1.737983         1.484361         0.328901
 C         2.269954        -0.896927         1.025187
 C         2.929219        -1.974325         0.496250
 C         2.995787        -1.834908        -0.975953
 C         3.746347        -0.627796        -1.398701
 C         2.208840        -0.556170        -1.312685
 O         1.485315        -0.478341        -2.548219
 H        -0.487352         0.839227        -0.090369
 H        -0.362228        -0.901958        -0.608213
 H        -0.273361        -0.501396         1.082285
 H         2.655626         1.767331         0.250386
 H         2.152968        -0.526332         2.071073
 H         3.281058        -2.931102         0.871148
 H         2.866646        -2.600222        -1.666133
 H         4.376497        -0.068641        -0.739042
 H         4.133892        -0.664518        -2.469429
 H         1.505879         0.468752        -2.725393
