19
Iteration:  4875
 C        -0.079743        -0.056487         0.013233
 C         1.520142         0.013748         0.014061
 O         2.040923         1.402166         0.449979
 C         2.125952        -1.049373         0.955624
 C         2.994265        -1.944849         0.443117
 C         3.087758        -1.635191        -0.984217
 C         3.701694        -0.376063        -1.505149
 C         2.191866        -0.532160        -1.275368
 O         1.382888        -0.679415        -2.441564
 H        -0.371383        -0.439512        -1.025572
 H        -0.285660        -0.976417         0.763215
 H        -0.625740         0.835171         0.362333
 H         3.094732         1.207812         0.543061
 H         1.673840        -1.036698         1.902222
 H         3.489953        -2.761736         0.989131
 H         2.975930        -2.409423        -1.801941
 H         4.097210         0.339045        -0.751857
 H         4.026037        -0.299598        -2.567453
 H         1.753402        -0.248557        -3.257948
