19
Iteration:  4409charge 0 multiplicity 1
 C         0.092890        -0.295213         0.098781
 C         1.707774        -0.010707         0.063650
 O         1.778680         1.427067         0.168839
 C         2.253418        -0.995044         1.100809
 C         2.912224        -2.093528         0.475312
 C         2.962282        -1.810216        -1.010016
 C         3.656407        -0.362933        -1.431146
 C         2.188696        -0.547670        -1.347157
 O         1.434204        -0.296990        -2.500454
 H        -0.078090        -1.362658         0.265143
 H        -0.165187         0.182427         1.105256
 H        -0.334580         0.267261        -0.704095
 H         2.382293         1.713197         0.958448
 H         2.052008        -0.826279         2.147146
 H         3.270642        -2.995022         0.992887
 H         2.961427        -2.749267        -1.602053
 H         4.295633        -0.056746        -0.551902
 H         4.209635        -0.427431        -2.373226
 H         1.821042         0.373330        -3.127947
