19
Iteration:   893charge 0 multiplicity 1
 C         0.040483         0.007352        -0.003953
 C         1.604272         0.002587        -0.056408
 O         1.903552         1.430183         0.215914
 C         2.057659        -0.950259         1.027127
 C         2.715788        -1.945105         0.479895
 C         3.085835        -1.802704        -0.898060
 C         3.686870        -0.383358        -1.338782
 C         2.301106        -0.586857        -1.287592
 O         1.610474        -0.657435        -2.514702
 H        -0.114536         0.308672         1.004888
 H        -0.347634         0.783519        -0.597825
 H        -0.409878        -0.960567        -0.321506
 H         2.796103         1.385503         0.494780
 H         1.768362        -0.814689         2.051815
 H         3.000904        -2.794967         1.111970
 H         3.178780        -2.658335        -1.574058
 H         4.220843         0.065404        -0.570711
 H         4.205518        -0.547709        -2.327357
 H         0.692728        -0.421267        -2.349694
