19
Iteration:   934charge 0 multiplicity 1
 C        -0.001693         0.024512         0.011320
 C         1.485206        -0.056985         0.004036
 O         1.948215         1.349657         0.220147
 C         2.007284        -1.034552         1.072706
 C         2.966445        -1.795794         0.594808
 C         2.991333        -1.846097        -0.937695
 C         3.686533        -0.497970        -1.315755
 C         2.183786        -0.592896        -1.306958
 O         1.611516        -0.547352        -2.611861
 H        -0.254028         1.102612         0.152812
 H        -0.378167        -0.174127        -1.058639
 H        -0.496127        -0.710814         0.674311
 H         2.943072         1.401688         0.287121
 H         1.735686        -0.900473         2.107550
 H         3.690456        -2.416768         1.083039
 H         3.108668        -2.666969        -1.645423
 H         4.254575        -0.042834        -0.510144
 H         4.276300        -0.433987        -2.277203
 H         1.448168         0.403456        -2.802103
