19
Iteration:  2579
 C         0.009664        -0.065688         0.079104
 C         1.605084         0.045153         0.051810
 O         1.934644         1.385305         0.108298
 C         2.234765        -1.037036         1.192585
 C         2.762827        -2.022470         0.498144
 C         3.034582        -1.741061        -0.943201
 C         3.745784        -0.380526        -1.406187
 C         2.208910        -0.527131        -1.347692
 O         1.488907        -0.609365        -2.515860
 H        -0.417101         0.909509        -0.289911
 H        -0.370523        -0.703070        -0.613710
 H        -0.277472        -0.218585         1.135018
 H         2.942977         1.355541        -0.161930
 H         1.829943        -1.035639         2.278591
 H         3.222135        -2.845262         1.105275
 H         2.984076        -2.452242        -1.716255
 H         4.271833         0.286204        -0.707364
 H         4.084344        -0.264924        -2.404751
 H         0.851077         0.102408        -2.387096
