19
Iteration:  4819charge 0 multiplicity 1
 C         0.001326        -0.169025         0.032626
 C         1.551715        -0.065069         0.034943
 O         1.900098         1.380056         0.237794
 C         2.173295        -0.982300         0.999030
 C         3.019294        -1.955687         0.469721
 C         3.059934        -1.866103        -1.004426
 C         3.687593        -0.465878        -1.341157
 C         2.204960        -0.549535        -1.279018
 O         1.373033        -0.356383        -2.485607
 H        -0.365172        -0.786547        -0.816737
 H        -0.369229        -0.699875         1.064852
 H        -0.582865         0.761478        -0.034543
 H         2.890819         1.359538         0.160115
 H         2.311420        -0.625279         2.081312
 H         3.702605        -2.485090         1.209776
 H         3.025459        -2.619433        -1.791441
 H         4.439052        -0.181383        -0.609708
 H         4.007247        -0.219239        -2.343019
 H         1.299704         0.568248        -2.682235
