19
Iteration:  4147
 C         0.017475        -0.477219         0.155074
 C         1.604396         0.051360         0.026080
 O         1.688993         1.482071         0.237220
 C         2.366205        -0.849614         1.043493
 C         2.836356        -1.953720         0.460976
 C         2.785892        -1.817986        -1.074455
 C         3.835223        -0.642184        -1.406776
 C         2.210494        -0.490049        -1.267062
 O         1.624631        -0.271391        -2.516889
 H        -0.029187        -1.436450        -0.283216
 H        -0.275478        -0.669843         1.286557
 H        -0.758248         0.147936        -0.235424
 H         2.548505         1.789512         0.220058
 H         2.413991        -0.393880         2.003784
 H         3.280090        -2.807011         0.906006
 H         2.611486        -2.652669        -1.680559
 H         4.434204        -0.384470        -0.610746
 H         4.089586        -0.594079        -2.397579
 H         1.902718         0.604157        -2.770020
