19
Iteration:  4524charge 0 multiplicity 1
 C         0.039933        -0.174905         0.012437
 C         1.562128         0.011603        -0.021046
 O         1.928434         1.376723         0.344068
 C         2.221214        -0.968263         0.997181
 C         2.996127        -1.939590         0.443106
 C         2.994355        -1.755416        -1.053534
 C         3.762493        -0.453878        -1.361822
 C         2.188782        -0.418567        -1.310820
 O         1.330306        -0.447043        -2.451539
 H        -0.139935        -1.041550        -0.534310
 H        -0.329767        -0.416703         1.021529
 H        -0.504352         0.654254        -0.362425
 H         2.782558         1.361971         0.863744
 H         1.825569        -0.942600         1.970922
 H         3.266210        -2.845944         0.993613
 H         3.025618        -2.703476        -1.720619
 H         4.300116         0.059051        -0.569383
 H         4.082193        -0.415816        -2.354755
 H         1.481922        -1.370043        -2.840330
