19
Iteration:   859charge 0 multiplicity 1
 C        -0.012584        -0.056441        -0.245902
 C         1.558691        -0.039592         0.005394
 O         1.913488         1.434452         0.265915
 C         2.060873        -0.944658         1.110524
 C         2.920802        -1.904385         0.602796
 C         3.020103        -1.802452        -0.818895
 C         3.738881        -0.574972        -1.411005
 C         2.279440        -0.502549        -1.345318
 O         1.521383        -0.443103        -2.475454
 H        -0.464456        -0.371032         0.691805
 H        -0.283748         0.970863        -0.315876
 H        -0.495377        -0.747272        -0.965255
 H         2.838077         1.499611        -0.067014
 H         1.811465        -0.915820         2.165714
 H         3.419972        -2.676668         1.158842
 H         2.897066        -2.716854        -1.377900
 H         4.533957        -0.074589        -0.835075
 H         4.239105        -0.948507        -2.304804
 H         0.867464        -1.157635        -2.351297
