19
Iteration:  4447charge 0 multiplicity 1
 C         0.028492        -0.375489         0.064274
 C         1.572715        -0.062040         0.015755
 O         1.813616         1.357271         0.182468
 C         2.254969        -0.894569         1.044806
 C         2.949514        -1.970556         0.455239
 C         2.873891        -1.834204        -1.048548
 C         3.788080        -0.515867        -1.413899
 C         2.253370        -0.497433        -1.241740
 O         1.460548        -0.203211        -2.409968
 H        -0.190504        -1.403652         0.277897
 H        -0.341210         0.287658         0.866364
 H        -0.603402        -0.221086        -0.815903
 H         2.726954         1.589309        -0.239695
 H         2.213390        -0.646078         2.180433
 H         3.528327        -2.740025         1.091299
 H         2.834153        -2.647427        -1.835449
 H         4.413317        -0.369476        -0.562345
 H         4.193340        -0.403583        -2.436056
 H         1.295233         0.707693        -2.183605
