19
Iteration:  1719charge 0 multiplicity 1
 C         0.040385        -0.056860         0.068311
 C         1.550158        -0.059503        -0.008754
 O         1.951667         1.359241         0.302326
 C         2.155652        -0.927971         1.051171
 C         2.934378        -1.906212         0.476482
 C         2.918344        -1.776427        -0.934238
 C         3.725156        -0.560043        -1.376907
 C         2.214501        -0.421559        -1.368281
 O         1.517711        -0.574680        -2.605849
 H        -0.379239         0.006181        -0.938882
 H        -0.305234        -1.095274         0.287700
 H        -0.455971         0.741792         0.667429
 H         2.024563         1.479251         1.212498
 H         2.239234        -0.524395         2.111351
 H         3.291019        -2.819048         1.011260
 H         2.889333        -2.671364        -1.587494
 H         4.269015        -0.146075        -0.514051
 H         4.196551        -0.615871        -2.329392
 H         1.375802         0.401395        -2.750840
