19
Iteration:  2020
 C         0.126822        -0.098681        -0.175470
 C         1.653356         0.013288        -0.033576
 O         1.890755         1.401142         0.326456
 C         2.164946        -1.024016         1.109519
 C         2.943510        -1.894386         0.540882
 C         2.949958        -1.804926        -0.965332
 C         3.794546        -0.536104        -1.472943
 C         2.229809        -0.550083        -1.332034
 O         1.267416        -0.358806        -2.375274
 H        -0.554288         0.441028        -0.841731
 H        -0.029576        -1.167481        -0.260645
 H        -0.249297         0.183473         0.889107
 H         2.829953         1.509350         0.463473
 H         2.010544        -0.613001         2.119043
 H         3.455674        -2.706194         1.039945
 H         2.833387        -2.778335        -1.486332
 H         4.437029        -0.018809        -0.715459
 H         4.205277        -0.768128        -2.410468
 H         1.281005        -1.196699        -2.849384
