19
Iteration:  2098
 C        -0.005131        -0.033667         0.104817
 C         1.551535        -0.014696        -0.064437
 O         1.957672         1.336739         0.163544
 C         2.168186        -0.934419         1.066375
 C         2.907639        -1.908350         0.486524
 C         3.042945        -1.812042        -0.982224
 C         3.705088        -0.487151        -1.314348
 C         2.179085        -0.650802        -1.343724
 O         1.477801        -0.439560        -2.528294
 H        -0.638164         0.616619        -0.452289
 H        -0.368772        -1.113264        -0.065237
 H        -0.147012         0.073366         1.177381
 H         2.966417         1.280903         0.272851
 H         2.029894        -0.759033         2.080971
 H         3.445028        -2.595280         1.154563
 H         3.427098        -2.645828        -1.618557
 H         4.072724        -0.020199        -0.459014
 H         4.116517        -0.225642        -2.323047
 H         0.651156        -0.063186        -2.164768
