19
Iteration:  2720charge 0 multiplicity 1
 C         0.084097        -0.182712         0.045000
 C         1.606548        -0.008563         0.025694
 O         1.893069         1.384100         0.041431
 C         2.250066        -0.954103         1.126860
 C         2.906801        -1.954279         0.500605
 C         3.007152        -1.854472        -1.001858
 C         3.618642        -0.494736        -1.324975
 C         2.177964        -0.600585        -1.235177
 O         1.441547        -0.347875        -2.429657
 H        -0.396644         0.681927        -0.471955
 H        -0.059339        -1.001998        -0.559257
 H        -0.294711        -0.229941         1.094918
 H         2.813817         1.487097        -0.387371
 H         1.928615        -0.832621         2.163696
 H         3.463781        -2.722265         1.008151
 H         3.066498        -2.712204        -1.663993
 H         4.165455        -0.074604        -0.542170
 H         3.907521        -0.380840        -2.403241
 H         1.346311         0.609182        -2.445899
