19
Iteration:  4663charge 0 multiplicity 1
 C        -0.039311        -0.019053        -0.007723
 C         1.614212        -0.046436        -0.014112
 O         1.941129         1.319579         0.317365
 C         2.159314        -1.073267         1.041822
 C         2.934203        -1.968622         0.488444
 C         3.105263        -1.750805        -1.031727
 C         3.741753        -0.344676        -1.494610
 C         2.228133        -0.552688        -1.291344
 O         1.428352        -0.467901        -2.400929
 H        -0.688292        -0.851059        -0.439244
 H        -0.374113        -0.092275         1.052759
 H        -0.457203         1.032223        -0.318487
 H         2.737694         1.451335        -0.173501
 H         1.778762        -0.969348         2.039903
 H         3.384965        -2.850704         1.001216
 H         3.021981        -2.665174        -1.743943
 H         4.237037         0.169052        -0.656145
 H         4.049985        -0.136506        -2.496785
 H         0.597272        -0.836600        -2.001521
