19
Iteration:  4282charge 0 multiplicity 1
 C        -0.044552         0.073761         0.107156
 C         1.592904        -0.063252         0.057313
 O         1.989899         1.268197         0.413625
 C         1.977866        -1.144617         1.041306
 C         2.957105        -1.914762         0.393904
 C         3.111559        -1.620710        -1.062076
 C         3.676244        -0.243544        -1.466817
 C         2.215010        -0.498794        -1.329592
 O         1.484477        -0.753993        -2.459745
 H        -0.632080        -0.899256         0.473237
 H        -0.159790         1.041312         0.593785
 H        -0.276414         0.227401        -1.061665
 H         2.728807         1.419747        -0.117350
 H         1.752890        -1.393841         2.064779
 H         3.455222        -2.741494         0.962364
 H         3.178294        -2.379310        -1.830891
 H         4.038480         0.296726        -0.522599
 H         4.178022        -0.123262        -2.471809
 H         1.427160         0.065079        -3.021034
