19
Iteration:   169charge 0 multiplicity 1
 C        -0.047046        -0.128995        -0.022207
 C         1.558027         0.031197        -0.082283
 O         1.930866         1.409829         0.368383
 C         2.208496        -0.832064         0.986040
 C         2.881692        -1.949363         0.544741
 C         3.001452        -1.814895        -0.956120
 C         3.803191        -0.631742        -1.284627
 C         2.286710        -0.513002        -1.308027
 O         1.485482        -0.562680        -2.573379
 H        -0.381140        -0.636799         0.865093
 H        -0.552488         0.841752        -0.019284
 H        -0.571607        -0.485702        -0.937127
 H         1.177454         2.005782         0.207915
 H         2.053127        -0.533227         2.040574
 H         3.244568        -2.800388         1.122914
 H         2.997524        -2.634260        -1.641097
 H         4.443465        -0.189109        -0.495303
 H         4.251128        -0.599999        -2.287781
 H         1.490327         0.347605        -2.889620
