19
Iteration:  4868
 C         0.005296        -0.069451         0.055881
 C         1.543624         0.046420         0.079077
 O         1.981397         1.405297         0.391500
 C         2.115539        -1.088330         0.953738
 C         2.948101        -2.017166         0.495885
 C         3.110122        -1.633982        -1.009840
 C         3.706257        -0.337277        -1.560796
 C         2.129844        -0.538229        -1.261507
 O         1.384949        -0.666512        -2.465487
 H        -0.330803        -0.370979        -0.919594
 H        -0.283329        -0.785240         0.696579
 H        -0.575683         0.828132         0.310213
 H         2.970803         1.284866         0.572385
 H         1.621414        -0.947282         1.921824
 H         3.554439        -2.737482         0.973543
 H         2.979164        -2.406133        -1.743923
 H         4.317993         0.215088        -0.794305
 H         4.213768        -0.165339        -2.547233
 H         2.071976        -0.273217        -3.092308
