19
Iteration:   753
 C         0.115397        -0.149203        -0.000888
 C         1.531445        -0.039094        -0.042300
 O         1.862371         1.488944         0.093793
 C         2.100997        -0.958402         1.058157
 C         2.741027        -2.093029         0.595164
 C         3.033231        -1.764073        -0.825667
 C         3.823494        -0.494351        -1.315718
 C         2.281106        -0.527806        -1.333325
 O         1.528623        -0.447487        -2.549872
 H        -0.232793         0.718589         0.561649
 H        -0.377196        -0.124100        -0.968696
 H        -0.357087        -1.129070         0.367733
 H         2.811481         1.393078         0.405100
 H         1.853810        -0.738084         2.077711
 H         3.218422        -2.880884         1.125636
 H         3.102591        -2.491078        -1.590177
 H         4.211664         0.093304        -0.486262
 H         4.368277        -0.482299        -2.218594
 H         0.740043         0.101292        -2.395519
