19
Iteration:  2779
 C         0.054086        -0.140374         0.133761
 C         1.587608         0.010603        -0.057427
 O         1.739845         1.465980         0.313236
 C         2.265329        -0.890811         1.024913
 C         2.934221        -1.965340         0.476885
 C         2.982007        -1.818757        -0.969424
 C         3.757093        -0.629504        -1.400413
 C         2.209642        -0.566936        -1.302633
 O         1.484355        -0.467809        -2.551307
 H        -0.368508         0.812845        -0.065793
 H        -0.351530        -0.901089        -0.613240
 H        -0.233333        -0.527777         1.081481
 H         2.619553         1.753906         0.258272
 H         2.106229        -0.498682         2.044093
 H         3.287249        -2.913782         0.946525
 H         2.886703        -2.647905        -1.677161
 H         4.406943        -0.041272        -0.695795
 H         4.157479        -0.688367        -2.414045
 H         1.530254         0.503978        -2.708438
