19
Iteration:  1072
 C        -0.025850        -0.122927         0.083557
 C         1.508475        -0.098131        -0.032953
 O         1.841046         1.340574         0.092159
 C         2.096918        -0.959617         1.056822
 C         2.876141        -1.954238         0.539718
 C         3.081185        -1.827181        -0.961940
 C         3.790647        -0.549471        -1.244538
 C         2.244316        -0.555019        -1.304813
 O         1.576768        -0.276118        -2.550211
 H        -0.578947         0.365206        -0.755965
 H        -0.497639        -1.169349         0.027814
 H        -0.265622         0.328488         1.016479
 H         2.799520         1.508936        -0.044746
 H         1.935876        -0.721263         2.082607
 H         3.262682        -2.702383         1.189203
 H         3.507337        -2.624309        -1.560796
 H         4.424293        -0.213979        -0.421232
 H         4.153408        -0.505697        -2.331424
 H         0.826375         0.314142        -2.297194
