19
Iteration:   999charge 0 multiplicity 1
 C         0.146625        -0.200013        -0.135265
 C         1.637016         0.048740        -0.057994
 O         1.838669         1.428220         0.352630
 C         2.108004        -0.956645         1.046003
 C         2.850778        -1.949131         0.542555
 C         2.955779        -1.816903        -1.000821
 C         3.730242        -0.560414        -1.280830
 C         2.290418        -0.484525        -1.304961
 O         1.474668        -0.359276        -2.438572
 H        -0.441704         0.014220        -1.054425
 H        -0.034205        -1.316842         0.105294
 H        -0.383456         0.472232         0.594369
 H         2.482630         1.845756        -0.168579
 H         1.745655        -0.701202         2.012611
 H         3.198074        -2.825715         1.095142
 H         2.736862        -2.590050        -1.749418
 H         4.408774        -0.310853        -0.537744
 H         4.136836        -0.757878        -2.333813
 H         1.624176        -1.081044        -3.066787
