19
Iteration:   285charge 0 multiplicity 1
 C        -0.065558        -0.119273        -0.005153
 C         1.533974        -0.036928         0.103258
 O         1.883954         1.509196         0.377327
 C         2.064897        -0.978927         1.051790
 C         2.793989        -1.843821         0.429030
 C         2.922150        -1.782519        -0.984913
 C         3.824420        -0.448731        -1.372343
 C         2.259521        -0.607121        -1.303562
 O         1.705730        -0.629795        -2.578798
 H        -0.262720         0.913145         0.404232
 H        -0.393332        -0.332795        -1.062710
 H        -0.487258        -0.900162         0.500814
 H         2.662274         1.495678        -0.201612
 H         2.143514        -0.994190         2.176320
 H         3.193105        -2.741054         0.926230
 H         3.060858        -2.478813        -1.770750
 H         4.521953        -0.053719        -0.636936
 H         4.268762        -0.390428        -2.322437
 H         0.973227         0.029304        -2.586513
