19
Iteration:  3747
 C         0.055704         0.018773        -0.068409
 C         1.567387        -0.060235        -0.009844
 O         2.002715         1.257041         0.224831
 C         1.998211        -0.994608         1.028511
 C         2.965702        -1.899998         0.476513
 C         3.218170        -1.655144        -0.935998
 C         3.682407        -0.261907        -1.423871
 C         2.226653        -0.621458        -1.299093
 O         1.341217        -0.687043        -2.416454
 H        -0.194967         0.737967        -0.756257
 H        -0.251241        -1.066096        -0.359896
 H        -0.217736         0.406899         0.896887
 H         2.230379         1.343862         1.155209
 H         1.523385        -1.057985         2.078826
 H         3.220616        -2.840972         0.897536
 H         3.537411        -2.487518        -1.548276
 H         4.092847         0.364763        -0.606147
 H         4.067640        -0.235713        -2.395802
 H         1.034797         0.208869        -2.300786
