19
Iteration:  4792
 C         0.046493        -0.305675         0.030438
 C         1.602498        -0.035786         0.096930
 O         1.834024         1.298067         0.226315
 C         2.283570        -0.911858         1.101597
 C         2.963143        -1.880660         0.492313
 C         2.865488        -1.794978        -0.953268
 C         3.709838        -0.516194        -1.487862
 C         2.174946        -0.501332        -1.275563
 O         1.541179        -0.251995        -2.501166
 H        -0.194928        -1.288383        -0.421438
 H        -0.431155        -0.274397         0.924944
 H        -0.466490         0.452206        -0.612935
 H         2.783265         1.396043        -0.048290
 H         2.105595        -0.976046         2.124284
 H         3.391778        -2.695009         1.017133
 H         2.675965        -2.588368        -1.703083
 H         4.549949        -0.362065        -0.783925
 H         4.102716        -0.603162        -2.528362
 H         0.843447         0.379652        -2.407370
