19
Iteration:  3428
 C        -0.013509        -0.013055        -0.106025
 C         1.492606        -0.026895         0.007397
 O         2.009646         1.329918         0.417585
 C         2.130494        -1.031072         0.980768
 C         3.045235        -1.848111         0.538112
 C         3.102197        -1.710053        -1.006109
 C         3.655217        -0.355160        -1.479162
 C         2.230138        -0.544893        -1.330381
 O         1.373387        -0.711363        -2.456231
 H        -0.170117         0.827386        -0.713680
 H        -0.615000        -0.898234        -0.442483
 H        -0.299447         0.138367         0.959213
 H         1.958079         1.236943         1.334956
 H         1.966817        -0.825949         2.091176
 H         3.722233        -2.386117         1.145338
 H         3.123998        -2.577308        -1.666589
 H         4.202770         0.252426        -0.695690
 H         4.081348        -0.620044        -2.480992
 H         1.308045         0.107220        -2.953412
