19
Iteration:  2975charge 0 multiplicity 1
 C        -0.052351        -0.182197        -0.080172
 C         1.531408        -0.029533        -0.032319
 O         1.781006         1.419701         0.351884
 C         2.267639        -0.888117         1.065481
 C         3.097980        -1.783627         0.548730
 C         2.997458        -1.901629        -0.979230
 C         3.666889        -0.673495        -1.499889
 C         2.160770        -0.631880        -1.277288
 O         1.492597        -0.359253        -2.466892
 H        -0.508455         0.412384        -0.910795
 H        -0.226159        -1.237007        -0.350741
 H        -0.412960         0.226507         0.813253
 H         2.482891         1.405022         0.953876
 H         2.282136        -0.631731         2.129917
 H         3.832624        -2.243637         1.225801
 H         3.169482        -2.745698        -1.606590
 H         4.359911        -0.105918        -0.793168
 H         3.945270        -0.663937        -2.540737
 H         1.764320         0.512149        -2.807607
