19
Iteration:  2222
 C         0.087379        -0.236767        -0.087303
 C         1.599200         0.009149         0.076963
 O         1.776978         1.439948         0.217582
 C         2.265438        -0.848926         1.105216
 C         2.879030        -1.917901         0.555168
 C         2.928934        -1.865143        -0.953771
 C         3.720649        -0.677912        -1.606631
 C         2.260397        -0.523927        -1.245990
 O         1.509874        -0.391392        -2.386875
 H        -0.308460         0.611391        -0.661539
 H        -0.201154        -1.169478        -0.429521
 H        -0.337914        -0.024785         0.883320
 H         2.629822         1.716494         0.710248
 H         1.993692        -0.699522         2.123460
 H         3.354327        -2.508304         1.297179
 H         2.706449        -2.710481        -1.629410
 H         4.563403        -0.171036        -1.154118
 H         3.927739        -0.796771        -2.685451
 H         1.302025         0.523215        -2.651076
