19
Iteration:   558
 C         0.053054        -0.097674        -0.175016
 C         1.558553        -0.060354         0.034307
 O         1.991437         1.380505         0.375221
 C         2.075875        -0.989733         1.067044
 C         2.821224        -1.934320         0.542679
 C         3.118308        -1.751998        -0.830383
 C         3.684969        -0.486725        -1.403227
 C         2.234913        -0.558131        -1.323407
 O         1.504522        -0.422253        -2.539736
 H        -0.340314         0.677447         0.498153
 H        -0.195691         0.193367        -1.213352
 H        -0.347849        -1.116177         0.183186
 H         1.690172         2.020550        -0.358826
 H         1.878524        -0.819780         2.165895
 H         3.479224        -2.643372         1.120697
 H         3.317209        -2.652463        -1.473676
 H         4.257873         0.077540        -0.727007
 H         4.000986        -0.610373        -2.456172
 H         0.883835        -1.097176        -2.826056
