19
Iteration:  1606charge 0 multiplicity 1
 C         0.065876        -0.173685        -0.116730
 C         1.617589        -0.031238         0.009016
 O         1.971526         1.309217         0.446849
 C         2.111749        -0.909933         1.114577
 C         2.919247        -1.824417         0.605964
 C         2.900169        -1.799011        -0.939286
 C         3.723321        -0.615646        -1.516922
 C         2.269928        -0.451953        -1.351817
 O         1.443363        -0.416131        -2.541371
 H        -0.303487         0.661157        -0.836468
 H        -0.134782        -1.136330        -0.656323
 H        -0.380825         0.016824         0.910045
 H         1.350354         2.082746         0.251780
 H         2.020861        -0.643891         2.214235
 H         3.342455        -2.676180         1.175941
 H         2.867183        -2.712340        -1.528580
 H         4.239975         0.002310        -0.673389
 H         4.216933        -0.735324        -2.455905
 H         1.965489        -0.665506        -3.322171
