19
Iteration:  1188
 C        -0.011253        -0.008954        -0.139018
 C         1.542530        -0.081670         0.041119
 O         1.926619         1.365817         0.247832
 C         2.079264        -1.043603         1.098591
 C         2.917073        -1.909327         0.512388
 C         3.071913        -1.791180        -0.909126
 C         3.731977        -0.428847        -1.309136
 C         2.212430        -0.566653        -1.273723
 O         1.483060        -0.508512        -2.523451
 H        -0.253045         0.339304        -1.147316
 H        -0.261481        -1.056370        -0.215658
 H        -0.423126         0.582715         0.699987
 H         2.870534         1.370890         0.020170
 H         1.945531        -1.090131         2.153110
 H         3.434081        -2.666699         1.029670
 H         3.173558        -2.650503        -1.570152
 H         4.324130         0.078924        -0.564839
 H         4.004530        -0.292891        -2.387838
 H         1.214129         0.436377        -2.640715
