19
Iteration:  2216charge 0 multiplicity 1
 C         0.084461        -0.210352        -0.083404
 C         1.610125         0.047247         0.036629
 O         1.766164         1.481147         0.283988
 C         2.274621        -0.852776         1.108674
 C         2.878895        -1.903101         0.562099
 C         2.916312        -1.855029        -0.919463
 C         3.699751        -0.703197        -1.624175
 C         2.271531        -0.553793        -1.283924
 O         1.532781        -0.402477        -2.430716
 H        -0.460098         0.485130        -0.738152
 H        -0.259481        -1.296488        -0.347224
 H        -0.344153        -0.148002         0.970086
 H         2.516861         1.647971         0.832754
 H         2.029516        -0.927975         2.202990
 H         3.567883        -2.525432         1.210067
 H         2.715920        -2.723914        -1.586060
 H         4.494235        -0.156339        -1.113088
 H         3.739427        -0.941381        -2.720032
 H         1.501376         0.516579        -2.703820
