19
Iteration:  4987
 C         0.091872        -0.287925         0.091546
 C         1.652721         0.061798         0.075219
 O         1.863413         1.485517         0.253467
 C         2.304333        -0.853240         1.066976
 C         2.827737        -1.980762         0.451798
 C         2.993474        -1.860296        -0.933731
 C         3.688811        -0.421794        -1.368711
 C         2.169675        -0.611449        -1.272486
 O         1.378097        -0.492283        -2.611497
 H        -0.611035         0.522637        -0.257969
 H        -0.067445        -1.138528        -0.500545
 H        -0.230573        -0.487022         1.187777
 H         2.645858         1.752231        -0.093493
 H         2.122360        -0.888985         2.168410
 H         3.322907        -2.860351         0.863576
 H         2.932570        -2.583191        -1.680111
 H         4.256816         0.318501        -0.686788
 H         4.182247        -0.428645        -2.368246
 H         1.943757         0.158168        -3.014744
