19
Iteration:  2983charge 0 multiplicity 1
 C        -0.016601        -0.144428        -0.033665
 C         1.524144        -0.056887         0.064608
 O         1.771206         1.350590         0.297799
 C         2.246177        -0.852964         0.999276
 C         3.075569        -1.825252         0.520685
 C         3.031076        -1.936582        -0.923116
 C         3.659377        -0.664757        -1.453385
 C         2.217886        -0.585175        -1.320658
 O         1.495144        -0.321888        -2.513489
 H        -0.501776         0.362130        -0.826583
 H        -0.473187        -1.257403        -0.047356
 H        -0.518945         0.189207         0.910629
 H         2.267690         1.467897         1.079510
 H         2.232333        -0.403843         2.025547
 H         3.995228        -2.110813         1.018786
 H         3.147530        -2.820849        -1.467350
 H         4.209971        -0.048955        -0.817838
 H         3.846880        -0.773974        -2.554731
 H         1.790154         0.537473        -2.901330
