19
Iteration:   906
 C        -0.040496         0.028666         0.061764
 C         1.503549        -0.026173        -0.039103
 O         1.944390         1.353757         0.209679
 C         2.139115        -0.879569         0.966976
 C         2.770942        -2.024809         0.565350
 C         3.059922        -1.765002        -0.899201
 C         3.770922        -0.428628        -1.279251
 C         2.205258        -0.570965        -1.359499
 O         1.623816        -0.634760        -2.585199
 H        -0.391390         0.763141         0.804520
 H        -0.319163         0.459027        -0.880135
 H        -0.629931        -0.894940         0.253681
 H         2.857733         1.413763         0.683279
 H         1.824875        -0.697016         2.004871
 H         3.161573        -2.900983         1.149114
 H         3.355824        -2.491747        -1.676026
 H         4.103313         0.326270        -0.592907
 H         4.403745        -0.501982        -2.193333
 H         0.751239        -0.179834        -2.542490
