19
Iteration:   258charge 0 multiplicity 1
 C        -0.006815         0.011238        -0.056498
 C         1.563113         0.047094        -0.058156
 O         1.799485         1.298019         0.357350
 C         2.167296        -0.950428         1.009733
 C         2.942876        -2.020043         0.582955
 C         3.018452        -1.784608        -0.859145
 C         3.706952        -0.517080        -1.312921
 C         2.184142        -0.518571        -1.288826
 O         1.598558        -0.537928        -2.648018
 H        -0.350301         0.854468         0.496796
 H        -0.410267        -0.046718        -1.063310
 H        -0.214894        -1.043285         0.402416
 H         2.558621         1.612280        -0.169580
 H         2.103382        -0.704942         2.045664
 H         3.440541        -2.760813         1.217225
 H         2.844956        -2.514367        -1.661473
 H         4.350537        -0.097802        -0.483551
 H         4.160170        -0.256299        -2.291237
 H         1.348480         0.386399        -2.830578
