19
Iteration:  4505
 C         0.054583        -0.214675         0.038626
 C         1.607548         0.000902         0.081440
 O         1.805364         1.391471         0.369016
 C         2.200442        -0.961307         1.102484
 C         2.892156        -1.935165         0.416803
 C         2.954077        -1.736465        -1.017975
 C         3.730256        -0.516806        -1.533981
 C         2.222528        -0.515274        -1.275697
 O         1.502693        -0.364786        -2.514468
 H        -0.134364        -1.142012        -0.474218
 H        -0.399618        -0.390962         1.145052
 H        -0.288687         0.679986        -0.382177
 H         2.743577         1.476826         0.405397
 H         2.244401        -0.717823         2.111421
 H         3.608725        -2.556106         0.849199
 H         2.854699        -2.567175        -1.718760
 H         4.354483        -0.076926        -0.740797
 H         4.038236        -0.490201        -2.547945
 H         1.218454        -1.274042        -2.841798
