19
Iteration:   212charge 0 multiplicity 1
 C        -0.003360        -0.165660        -0.166157
 C         1.550036        -0.043201         0.001124
 O         1.993256         1.385099         0.056149
 C         2.057261        -0.998924         1.033601
 C         2.948732        -1.979041         0.640559
 C         3.037792        -1.801991        -0.844705
 C         3.712918        -0.458855        -1.382469
 C         2.203792        -0.520127        -1.205735
 O         1.460794        -0.369474        -2.393009
 H        -0.378994        -0.273797         0.840410
 H        -0.549957         0.596252        -0.780800
 H        -0.138566        -1.135574        -0.729974
 H         2.420823         1.593399         0.969285
 H         1.777903        -0.835044         2.110631
 H         3.159354        -2.884933         1.202195
 H         2.894438        -2.655557        -1.477308
 H         4.578481         0.202131        -1.026602
 H         3.940267        -0.518984        -2.438571
 H         2.058842         0.089883        -2.977620
