19
Iteration:  1068
 C        -0.025298        -0.110443         0.108866
 C         1.551581        -0.117813        -0.043851
 O         1.818281         1.366983         0.098825
 C         2.068918        -0.969538         1.024072
 C         2.887878        -1.957119         0.549507
 C         3.083925        -1.812310        -0.965678
 C         3.777101        -0.554440        -1.232927
 C         2.192038        -0.602349        -1.348626
 O         1.608653        -0.260204        -2.554702
 H        -0.622526         0.317628        -0.700153
 H        -0.229163        -1.153226         0.116877
 H        -0.246843         0.498505         1.024253
 H         2.772367         1.483201         0.017198
 H         1.909818        -0.762228         2.102904
 H         3.381888        -2.643240         1.264239
 H         3.410764        -2.667487        -1.575782
 H         4.467038        -0.204036        -0.401695
 H         4.158971        -0.517978        -2.206607
 H         0.845453         0.241170        -2.240860
