19
Iteration:  2358charge 0 multiplicity 1
 C         0.100415        -0.045239        -0.297028
 C         1.577011        -0.035247         0.007316
 O         2.011252         1.302699         0.405720
 C         2.203698        -0.968028         1.177574
 C         2.956515        -1.912798         0.591037
 C         2.994055        -1.680313        -0.991273
 C         3.620943        -0.465251        -1.550518
 C         2.167038        -0.493133        -1.264585
 O         1.301605        -0.590403        -2.386731
 H        -0.156154         0.643973        -1.079385
 H        -0.075104        -1.138815        -0.588606
 H        -0.442766         0.074180         0.615370
 H         2.981947         1.252423         0.498852
 H         2.008049        -0.912572         2.311543
 H         3.737680        -2.542268         1.026236
 H         2.929367        -2.493915        -1.650764
 H         4.377539         0.092962        -0.987561
 H         3.987734        -0.669397        -2.561494
 H         1.314892         0.303436        -2.730601
