19
Iteration:  3105charge 0 multiplicity 1
 C        -0.062925        -0.047404        -0.048238
 C         1.484539        -0.003662         0.082469
 O         1.993844         1.217245         0.508858
 C         2.132188        -0.954299         1.095611
 C         3.168593        -1.684187         0.538312
 C         3.008100        -1.706116        -0.976941
 C         3.666350        -0.525828        -1.657835
 C         2.149339        -0.579276        -1.261774
 O         1.488007        -0.564812        -2.532045
 H        -0.384960         0.665634        -0.880707
 H        -0.412263        -1.093343        -0.364436
 H        -0.653408         0.103367         0.832745
 H         1.572119         1.766682        -0.249217
 H         1.743727        -0.917582         2.098342
 H         3.692127        -2.447893         1.154199
 H         2.967964        -2.705369        -1.535426
 H         4.331005        -0.093737        -0.873104
 H         4.001566        -0.832407        -2.625301
 H         1.998540        -0.067649        -3.214694
