19
Iteration:  2389
 C         0.031714         0.002388         0.054366
 C         1.544567        -0.023251        -0.035528
 O         1.985349         1.350708         0.242537
 C         2.065234        -1.007397         1.086339
 C         2.929542        -1.901357         0.554546
 C         3.139853        -1.753261        -1.024561
 C         3.686341        -0.452717        -1.465372
 C         2.184973        -0.604821        -1.271798
 O         1.384392        -0.557356        -2.464626
 H        -0.517261         0.883881        -0.101335
 H        -0.371017        -0.789108        -0.668690
 H        -0.215734        -0.359507         1.045979
 H         2.950831         1.363609         0.048483
 H         1.888953        -0.828972         2.226501
 H         3.415268        -2.726596         1.162207
 H         3.124462        -2.593443        -1.658172
 H         4.350653         0.058675        -0.684942
 H         4.024692        -0.349859        -2.510874
 H         1.555658         0.337796        -2.865538
