19
Iteration:  1250charge 0 multiplicity 1
 C         0.073799        -0.092129         0.060495
 C         1.529851        -0.034122        -0.006162
 O         1.829210         1.428628         0.220505
 C         2.110921        -0.991208         1.018591
 C         2.856924        -1.977180         0.536350
 C         2.954907        -1.726985        -0.901481
 C         3.802588        -0.496949        -1.358411
 C         2.180170        -0.536405        -1.255818
 O         1.657863        -0.536094        -2.586357
 H        -0.486146         0.707142        -0.416089
 H        -0.338841        -1.033022        -0.223471
 H        -0.335580         0.016694         1.115842
 H         2.675476         1.583125        -0.180634
 H         1.758349        -0.918382         2.005786
 H         3.101825        -2.834038         1.073577
 H         2.905949        -2.595983        -1.565989
 H         4.449483        -0.013002        -0.638196
 H         4.135523        -0.489538        -2.382422
 H         1.348641         0.364256        -2.843253
