19
Iteration:  3559
 C         0.002089        -0.268907        -0.015087
 C         1.528649         0.046108         0.076043
 O         1.788707         1.405906         0.316749
 C         2.296516        -0.885364         1.127178
 C         3.001672        -1.879157         0.521188
 C         2.923718        -1.779148        -0.930283
 C         3.784909        -0.711365        -1.568924
 C         2.219101        -0.463952        -1.294713
 O         1.541786        -0.386103        -2.543265
 H        -0.621788        -0.060351        -0.832437
 H        -0.072785        -1.382555         0.102403
 H        -0.534810         0.347443         0.686876
 H         1.038760         1.916875         0.767345
 H         2.189757        -0.898931         2.197843
 H         3.401611        -2.762490         1.117533
 H         2.603270        -2.616939        -1.508730
 H         4.493999        -0.091381        -0.963175
 H         4.050782        -0.759517        -2.655196
 H         2.202183         0.109311        -3.056054
