19
Iteration:  2356
 C         0.098152        -0.040712        -0.304357
 C         1.579379        -0.025333         0.020267
 O         1.995559         1.293362         0.416283
 C         2.193646        -0.962790         1.171947
 C         2.957911        -1.904155         0.581103
 C         3.004317        -1.699026        -0.986564
 C         3.636542        -0.475410        -1.557304
 C         2.167931        -0.485772        -1.271655
 O         1.296855        -0.597050        -2.394450
 H        -0.152130         0.583087        -1.096410
 H        -0.112955        -1.124003        -0.546469
 H        -0.380974         0.150676         0.673408
 H         3.023829         1.237051         0.549755
 H         2.057519        -0.802412         2.356836
 H         3.761921        -2.600614         1.008838
 H         2.899030        -2.495438        -1.683187
 H         4.408792         0.128721        -0.925623
 H         3.946955        -0.613352        -2.584373
 H         1.318763         0.318833        -2.716892
