19
Iteration:  3191
 C         0.039227        -0.071377         0.089755
 C         1.572816        -0.037511        -0.011031
 O         2.028598         1.347511         0.161725
 C         2.139532        -0.983852         1.037296
 C         2.902479        -1.998812         0.493156
 C         3.041820        -1.721753        -0.918474
 C         3.703768        -0.322029        -1.327321
 C         2.164776        -0.538285        -1.308232
 O         1.481025        -0.631851        -2.520752
 H        -0.591929         0.707970        -0.373248
 H        -0.296187        -1.157498        -0.232804
 H        -0.085858        -0.011928         1.157959
 H         1.322843         2.004924        -0.073556
 H         1.957099        -1.060652         2.120212
 H         3.314935        -2.878372         1.077609
 H         3.241620        -2.574356        -1.697064
 H         4.209131         0.358809        -0.592630
 H         4.082220        -0.167304        -2.361509
 H         1.044408         0.212166        -2.730396
