19
Iteration:  4949charge 0 multiplicity 1
 C        -0.037568        -0.019637         0.073857
 C         1.529333        -0.045132         0.060825
 O         1.901051         1.291344         0.239739
 C         2.155384        -1.022490         1.036247
 C         2.959380        -1.881446         0.441597
 C         3.072276        -1.706103        -1.036828
 C         3.784653        -0.374854        -1.411090
 C         2.239504        -0.612874        -1.302479
 O         1.441364        -0.577657        -2.450355
 H        -0.445952         0.466318        -0.825953
 H        -0.477785        -1.075694         0.259388
 H        -0.330141         0.547333         0.938803
 H         2.885749         1.271906         0.061834
 H         1.905206        -0.902500         2.063441
 H         3.604634        -2.547500         1.034485
 H         2.831153        -2.650818        -1.606527
 H         4.340981         0.274863        -0.810562
 H         3.921773        -0.353871        -2.470499
 H         0.965944         0.302980        -2.405555
