19
Iteration:  3278charge 0 multiplicity 1
 C         0.131039        -0.378231        -0.108468
 C         1.657466        -0.006958        -0.030397
 O         1.857842         1.486818         0.179422
 C         2.292763        -0.847615         1.058856
 C         2.874422        -1.973208         0.576920
 C         2.985696        -1.785001        -0.937506
 C         3.714613        -0.635983        -1.423354
 C         2.284857        -0.453184        -1.319599
 O         1.315962        -0.346274        -2.355010
 H        -0.297733         0.108108        -0.919806
 H         0.062036        -1.527202        -0.315100
 H        -0.484486        -0.124366         0.744557
 H         1.378320         1.519431         0.994158
 H         2.182243        -0.586723         2.107160
 H         3.231151        -2.676082         1.263036
 H         2.878360        -2.765998        -1.483746
 H         4.423049        -0.100048        -0.866413
 H         4.163889        -0.774126        -2.454135
 H         1.506401         0.461030        -2.842572
