19
Iteration:  4383
 C        -0.018173        -0.188187         0.076594
 C         1.543581        -0.005748         0.064385
 O         1.874024         1.335693         0.332891
 C         2.196538        -0.894956         0.998155
 C         2.915203        -1.921120         0.386413
 C         3.055013        -1.732200        -1.101382
 C         3.828533        -0.522094        -1.424661
 C         2.169396        -0.506948        -1.294163
 O         1.422968        -0.495519        -2.485255
 H        -0.324921        -1.183472        -0.248831
 H        -0.139243        -0.162698         1.304368
 H        -0.427579         0.748806        -0.346970
 H         2.274208         1.364436         1.291620
 H         1.986412        -0.812792         2.096337
 H         3.521296        -2.566721         1.043729
 H         3.003381        -2.587347        -1.797111
 H         4.352252         0.012837        -0.678778
 H         4.181414        -0.491875        -2.451189
 H         1.648722         0.299528        -3.030706
