19
Iteration:  2284
 C         0.047627        -0.075673         0.235575
 C         1.567292        -0.002243        -0.003172
 O         1.956884         1.307564         0.109294
 C         2.210382        -0.940082         1.097462
 C         2.811013        -1.963295         0.473528
 C         3.001603        -1.735737        -1.017595
 C         3.656312        -0.391743        -1.324110
 C         2.120659        -0.582486        -1.258139
 O         1.559372        -0.540261        -2.592956
 H        -0.670781         0.568413        -0.399378
 H        -0.320879        -1.179170         0.245775
 H         0.045212         0.225760         1.289576
 H         2.831061         1.406354        -0.438535
 H         1.975845        -0.979661         2.186373
 H         3.217611        -2.888364         0.912621
 H         3.102629        -2.628144        -1.586421
 H         4.143577         0.186323        -0.548635
 H         4.012185        -0.308097        -2.337072
 H         1.538373         0.420772        -2.819683
