19
Iteration:  3536charge 0 multiplicity 1
 C         0.160483        -0.240641        -0.089725
 C         1.645476        -0.030601         0.015296
 O         1.810110         1.418984         0.378180
 C         2.209136        -0.894781         1.082231
 C         2.923591        -1.881439         0.530356
 C         2.992394        -1.838455        -0.977172
 C         3.714747        -0.559763        -1.486565
 C         2.222237        -0.515146        -1.302993
 O         1.426890        -0.465398        -2.432397
 H        -0.311145         0.261608        -0.977603
 H        -0.169676        -1.226439        -0.259914
 H        -0.387458         0.391807         0.621023
 H         1.053702         1.833632         0.013973
 H         2.093595        -0.553117         2.123287
 H         3.552800        -2.554503         1.070188
 H         2.866010        -2.652112        -1.600887
 H         4.592959        -0.182499        -0.848850
 H         3.982456        -0.653562        -2.521720
 H         1.634233         0.414634        -2.782445
