19
Iteration:   735
 C        -0.020660        -0.079721        -0.044671
 C         1.572485        -0.022029        -0.018912
 O         1.874713         1.301435         0.171732
 C         2.060875        -0.911332         1.114521
 C         2.904854        -1.829340         0.525432
 C         2.980505        -1.843386        -0.959524
 C         3.736741        -0.531419        -1.269092
 C         2.220140        -0.578186        -1.292869
 O         1.601686        -0.465889        -2.524900
 H        -0.495630         0.567611         0.717460
 H        -0.451763         0.189321        -1.051061
 H        -0.279166        -1.162948         0.172497
 H         2.845328         1.499632         0.141475
 H         1.866749        -0.729535         2.161796
 H         3.415946        -2.573220         1.172321
 H         3.053028        -2.740406        -1.606871
 H         4.430315        -0.155678        -0.543022
 H         4.199889        -0.408720        -2.324164
 H         1.445513         0.496007        -2.635697
