19
Iteration:  3361
 C         0.067743        -0.100633         0.169148
 C         1.520299        -0.044737         0.019895
 O         1.913499         1.292269         0.141528
 C         2.170330        -0.970536         1.035016
 C         2.968333        -1.921039         0.462616
 C         3.113408        -1.796738        -1.009580
 C         3.712095        -0.378590        -1.325785
 C         2.189832        -0.554978        -1.348333
 O         1.431699        -0.491122        -2.497688
 H        -0.402244         0.443824        -0.664263
 H        -0.521446        -1.012048         0.089051
 H        -0.217630         0.230851         1.193732
 H         1.257577         1.863650         0.716614
 H         1.884838        -0.922702         2.050788
 H         3.431513        -2.744232         1.023436
 H         3.229576        -2.686803        -1.772043
 H         4.056898         0.116137        -0.440246
 H         4.192531        -0.417618        -2.372485
 H         1.780090         0.321458        -2.953830
