19
Iteration:  1049charge 0 multiplicity 1
 C         0.050476        -0.128612         0.183625
 C         1.498331        -0.013708        -0.071072
 O         1.767574         1.369711         0.137623
 C         2.085347        -0.986980         1.013155
 C         2.945190        -1.981292         0.512570
 C         2.963170        -1.909135        -0.920321
 C         3.712347        -0.529817        -1.302363
 C         2.243436        -0.591357        -1.281699
 O         1.751672        -0.251693        -2.613076
 H        -0.593728        -0.010965        -0.725112
 H        -0.439021        -0.989475         0.649523
 H        -0.121467         0.735458         0.791583
 H         2.743338         1.629353         0.147480
 H         1.793036        -0.870994         2.049698
 H         3.514333        -2.669290         1.079068
 H         3.008514        -2.786484        -1.562740
 H         3.928529         0.039974        -0.341491
 H         4.212482        -0.318978        -2.268959
 H         0.787420        -0.143456        -2.614718
