19
Iteration:   116
 C        -0.015905        -0.120525        -0.018044
 C         1.532476        -0.016783        -0.010037
 O         1.941081         1.379571         0.145299
 C         2.157296        -0.931568         1.086339
 C         2.866830        -1.962762         0.569517
 C         2.993606        -1.794339        -0.877331
 C         3.722869        -0.496048        -1.392980
 C         2.243039        -0.537495        -1.301921
 O         1.553298        -0.473095        -2.544581
 H        -0.325982        -0.343778         0.994950
 H        -0.590554         0.777765        -0.268278
 H        -0.431324        -0.977882        -0.694970
 H         2.591044         1.417553         0.826891
 H         1.832242        -0.849230         2.154999
 H         3.442649        -2.739503         1.046106
 H         3.065570        -2.624636        -1.555012
 H         4.218092         0.250099        -0.751668
 H         4.291341        -0.677771        -2.339044
 H         1.112293         0.387438        -2.485098
