19
Iteration:   499charge 0 multiplicity 1
 C        -0.046425        -0.114130         0.013466
 C         1.547314         0.016891         0.079171
 O         1.837512         1.447835         0.176088
 C         2.129306        -0.961396         1.077581
 C         2.880489        -1.929688         0.564401
 C         3.006380        -1.821612        -0.892476
 C         3.763278        -0.542373        -1.432695
 C         2.258825        -0.554091        -1.302532
 O         1.616820        -0.388856        -2.528957
 H        -0.604756        -0.664563         0.858466
 H        -0.656887         0.802690        -0.202509
 H        -0.320552        -0.632583        -0.896882
 H         2.826201         1.472669         0.063135
 H         1.845023        -0.870341         2.128713
 H         3.300406        -2.752630         1.110044
 H         2.923316        -2.667276        -1.534202
 H         4.528806        -0.208773        -0.649525
 H         4.160288        -0.440439        -2.413589
 H         1.374986        -1.280824        -2.883671
