19
Iteration:   937
 C        -0.015775         0.024117        -0.002987
 C         1.491931        -0.064903         0.029422
 O         1.947627         1.352874         0.226049
 C         2.001584        -1.022739         1.048893
 C         2.985126        -1.809256         0.588801
 C         2.979040        -1.824120        -0.937341
 C         3.691416        -0.513123        -1.329188
 C         2.173473        -0.603676        -1.319296
 O         1.618751        -0.532314        -2.573713
 H        -0.216478         1.043934         0.074226
 H        -0.267805        -0.228386        -0.987509
 H        -0.501257        -0.686547         0.656942
 H         2.881147         1.330108         0.194445
 H         1.675810        -0.856905         2.066671
 H         3.712733        -2.414807         1.182812
 H         3.110934        -2.683301        -1.615409
 H         4.197880         0.006691        -0.568831
 H         4.220685        -0.461550        -2.303350
 H         1.553595         0.388634        -2.861708
