19
Iteration:  1146
 C         0.026712        -0.075769        -0.083099
 C         1.516566         0.015896        -0.018354
 O         1.784747         1.273647         0.444560
 C         2.106270        -0.861314         1.047794
 C         2.856991        -1.842693         0.575950
 C         3.003058        -1.793013        -0.945302
 C         3.867981        -0.555374        -1.495362
 C         2.292434        -0.489701        -1.371452
 O         1.504506        -0.537432        -2.524237
 H        -0.304439         0.849311        -0.573863
 H        -0.613051        -0.855942        -0.536360
 H        -0.230911        -0.036565         0.952191
 H         2.523601         1.110971         1.174222
 H         2.032235        -0.516677         2.057605
 H         3.410820        -2.545606         1.148460
 H         3.062237        -2.777684        -1.425300
 H         4.624257         0.004796        -0.946812
 H         3.882236        -0.776813        -2.626075
 H         2.051050        -0.202128        -3.252961
