19
Iteration:   443
 C        -0.063680        -0.159808        -0.102567
 C         1.593847        -0.053931        -0.010057
 O         1.879313         1.382869         0.163741
 C         2.159819        -0.863158         1.086907
 C         2.949153        -1.870745         0.558976
 C         2.966950        -1.787482        -0.944437
 C         3.767306        -0.583758        -1.249176
 C         2.211629        -0.581099        -1.286890
 O         1.540496        -0.444925        -2.504931
 H        -0.442402        -0.761588         0.781228
 H        -0.631170         0.788341         0.069638
 H        -0.432443        -0.706724        -1.022268
 H         2.898322         1.317957        -0.055790
 H         1.795225        -0.692109         2.163995
 H         3.374639        -2.834005         0.992448
 H         3.090435        -2.557270        -1.710000
 H         4.340756        -0.076813        -0.433081
 H         4.145371        -0.353349        -2.310179
 H         1.239662         0.478254        -2.436030
