19
Iteration:   560
 C         0.041096        -0.086129        -0.156230
 C         1.551724        -0.065166         0.016996
 O         1.999168         1.365748         0.361202
 C         2.062658        -1.005036         1.065016
 C         2.836801        -1.928567         0.544523
 C         3.108215        -1.740033        -0.833941
 C         3.672440        -0.483947        -1.421964
 C         2.234458        -0.561357        -1.300711
 O         1.526788        -0.415053        -2.533537
 H        -0.322946         0.710470         0.442897
 H        -0.140862         0.140988        -1.198958
 H        -0.336923        -1.112737         0.176438
 H         1.620206         2.011388        -0.354316
 H         1.833538        -0.840332         2.163032
 H         3.533742        -2.597226         1.088513
 H         3.266235        -2.666759        -1.386636
 H         4.305676         0.114882        -0.709717
 H         4.025837        -0.631870        -2.431478
 H         0.834053        -1.082960        -2.772966
