19
Iteration:   342
 C        -0.032320        -0.064210        -0.183241
 C         1.541251        -0.077320         0.072201
 O         1.913437         1.297709         0.155144
 C         2.132029        -0.950717         1.164588
 C         2.961809        -1.902832         0.567956
 C         3.108826        -1.845963        -0.943149
 C         3.639420        -0.522391        -1.348594
 C         2.168285        -0.569053        -1.294948
 O         1.494122        -0.327971        -2.453232
 H        -0.675746         0.718623         0.105355
 H        -0.214604        -0.142930        -1.270425
 H        -0.509157        -0.953707         0.316149
 H         2.641207         1.458424         0.756202
 H         1.940261        -1.105823         2.181408
 H         3.660681        -2.490787         1.145998
 H         3.165698        -2.655815        -1.690619
 H         4.123896         0.092466        -0.528453
 H         3.985550        -0.223909        -2.357292
 H         2.238243        -0.211178        -3.088717
