19
Iteration:  4169charge 0 multiplicity 1
 C         0.206418        -0.505547         0.125611
 C         1.595455         0.017088         0.018033
 O         1.632885         1.406887         0.225566
 C         2.348754        -0.870935         1.047478
 C         2.811066        -1.928961         0.484743
 C         2.860393        -1.847886        -0.983324
 C         3.749301        -0.736289        -1.390607
 C         2.256604        -0.362727        -1.331435
 O         1.534348        -0.159111        -2.510588
 H         0.091549        -1.549754         0.250842
 H        -0.290025         0.112380         0.984582
 H        -0.223622        -0.070284        -0.744904
 H         2.552803         1.687683        -0.178475
 H         2.238607        -0.602064         2.114115
 H         3.357791        -2.695020         0.995329
 H         2.626862        -2.651983        -1.642028
 H         4.340795        -0.471184        -0.578024
 H         4.131533        -0.891025        -2.343813
 H         1.666099         0.811058        -2.729055
