19
Iteration:  4672
 C        -0.027275        -0.063310         0.056505
 C         1.586444        -0.072842         0.027205
 O         1.932910         1.300396         0.261178
 C         2.156202        -1.029792         0.988448
 C         2.971702        -2.019197         0.504949
 C         2.984735        -1.763943        -0.985395
 C         3.755315        -0.412253        -1.435921
 C         2.283865        -0.515669        -1.324163
 O         1.388711        -0.356034        -2.449458
 H        -0.539558        -0.966924        -0.507131
 H        -0.362436        -0.152839         1.056660
 H        -0.475796         0.924045        -0.442786
 H         2.680823         1.550706        -0.274474
 H         2.080122        -0.860133         2.089518
 H         3.514324        -2.691767         1.248643
 H         3.464136        -2.561796        -1.607626
 H         4.333979         0.180414        -0.636842
 H         4.105391        -0.236261        -2.473378
 H         0.635001        -0.958381        -2.204833
