19
Iteration:  2636charge 0 multiplicity 1
 C        -0.008726        -0.015341        -0.038787
 C         1.501698        -0.033623        -0.030463
 O         1.934171         1.287258         0.396863
 C         2.174651        -0.961757         1.111087
 C         3.031025        -1.823284         0.550966
 C         3.019410        -1.741972        -0.947928
 C         3.701459        -0.547654        -1.453002
 C         2.214565        -0.508148        -1.362333
 O         1.380588        -0.557881        -2.544701
 H        -0.324217         0.384512        -0.958891
 H        -0.524079        -0.978325         0.105313
 H        -0.471547         0.642246         0.739379
 H         2.828023         1.071520         0.498482
 H         2.211994        -0.604456         2.107495
 H         3.526392        -2.640176         1.010458
 H         3.080034        -2.725001        -1.426212
 H         4.347845         0.047082        -0.870756
 H         4.073546        -0.704274        -2.520960
 H         1.713322         0.224337        -3.053626
