19
Iteration:  4812charge 0 multiplicity 1
 C         0.018382        -0.214083         0.015969
 C         1.529910        -0.086719         0.045089
 O         1.916005         1.400443         0.229790
 C         2.183777        -0.990183         1.052201
 C         3.014349        -1.888773         0.458407
 C         2.982786        -1.846120        -1.036252
 C         3.680543        -0.541724        -1.343116
 C         2.178452        -0.521985        -1.271806
 O         1.448705        -0.343280        -2.465772
 H        -0.290119        -0.993024        -0.698897
 H        -0.237479        -0.631907         0.920903
 H        -0.567120         0.679642        -0.115772
 H         2.958673         1.372697         0.073195
 H         2.140391        -0.603982         2.027114
 H         3.826513        -2.498986         0.877378
 H         3.013151        -2.740425        -1.724813
 H         4.285293         0.059652        -0.572394
 H         3.932657        -0.251428        -2.405248
 H         1.153211         0.577403        -2.435449
