19
Iteration:  1116charge 0 multiplicity 1
 C         0.119891        -0.192352        -0.190507
 C         1.595867         0.079181         0.075511
 O         1.831047         1.493572         0.343243
 C         2.110957        -0.981730         1.042396
 C         2.895615        -1.928984         0.503158
 C         3.027352        -1.857908        -0.923113
 C         3.678544        -0.558140        -1.327447
 C         2.239690        -0.463520        -1.320705
 O         1.449015        -0.522624        -2.469025
 H        -0.337430         0.760676        -0.542741
 H        -0.016685        -0.901287        -1.081344
 H        -0.256986        -0.399974         0.771472
 H         2.789352         1.452137         0.350484
 H         1.956919        -0.936225         2.131456
 H         3.393400        -2.771135         1.020398
 H         2.936126        -2.798434        -1.511921
 H         4.258338         0.084591        -0.651096
 H         4.069666        -0.481605        -2.429420
 H         1.816172         0.111449        -3.131239
