19
Iteration:  1623charge 0 multiplicity 1
 C        -0.006546        -0.107342        -0.152691
 C         1.523760        -0.010611         0.004413
 O         2.005800         1.307353         0.431144
 C         2.201276        -0.878009         1.041824
 C         2.945590        -1.870472         0.586971
 C         2.927473        -1.825912        -0.920793
 C         3.706783        -0.544194        -1.459440
 C         2.140107        -0.587795        -1.252281
 O         1.521654        -0.400281        -2.488141
 H        -0.577570         0.688715        -0.570220
 H        -0.157817        -0.933465        -0.884342
 H        -0.502420        -0.310824         0.773220
 H         1.769099         1.942448        -0.256394
 H         1.938281        -0.734130         2.102677
 H         3.698337        -2.522891         1.048536
 H         2.755865        -2.750398        -1.506377
 H         4.568492        -0.097426        -0.953791
 H         3.760027        -0.634164        -2.565152
 H         2.164095        -0.456533        -3.219436
