19
Iteration:   357
 C        -0.082626        -0.113176        -0.186154
 C         1.465857        -0.064464        -0.030062
 O         1.916229         1.333315         0.204913
 C         2.152199        -0.992800         1.017125
 C         3.074185        -1.898318         0.553825
 C         2.956368        -1.793871        -0.866130
 C         3.671276        -0.471324        -1.320433
 C         2.211715        -0.541886        -1.215524
 O         1.520088        -0.345724        -2.455235
 H        -0.270970         0.713705         0.547313
 H        -0.274553        -0.041624        -1.261482
 H        -0.494499        -1.101650         0.162565
 H         2.606100         1.153841         0.808132
 H         1.976413        -0.649453         2.097659
 H         3.574324        -2.682340         1.144908
 H         3.001678        -2.728084        -1.449415
 H         4.396064        -0.030217        -0.675188
 H         4.061545        -0.630756        -2.389631
 H         2.161434        -0.476468        -3.194372
