19
Iteration:  2923charge 0 multiplicity 1
 C         0.050211        -0.198716         0.026385
 C         1.658049         0.047696        -0.008860
 O         1.883409         1.473469         0.333147
 C         2.164251        -0.930243         1.001666
 C         2.801712        -1.996520         0.454994
 C         3.073087        -1.733158        -0.923120
 C         3.783725        -0.380760        -1.455331
 C         2.275049        -0.556729        -1.277191
 O         1.390429        -0.672963        -2.465450
 H        -0.528119         0.664117        -0.493985
 H        -0.050567        -1.131205        -0.396375
 H        -0.198128        -0.179609         1.084658
 H         2.441004         1.859621        -0.323877
 H         1.786062        -0.801701         2.018416
 H         2.960450        -2.966554         0.952582
 H         3.025606        -2.586891        -1.647098
 H         4.304180         0.229159        -0.622735
 H         4.311021        -0.290751        -2.379827
 H         1.009763         0.182225        -2.676640
