19
Iteration:   766charge 0 multiplicity 1
 C         0.008603        -0.132567        -0.004927
 C         1.703982         0.088696        -0.070002
 O         1.830817         1.466117         0.084930
 C         2.165939        -0.994376         1.051356
 C         2.695716        -2.083049         0.567758
 C         3.097459        -1.816806        -0.870844
 C         3.748706        -0.461349        -1.257368
 C         2.302664        -0.504338        -1.334612
 O         1.541634        -0.455372        -2.508989
 H        -0.516735         0.638947         0.592362
 H        -0.493751        -0.196082        -1.010807
 H        -0.037356        -1.119083         0.578278
 H         2.714487         1.761795         0.384508
 H         1.737357        -0.887254         2.022517
 H         2.614149        -3.087536         0.997733
 H         3.276983        -2.705224        -1.490339
 H         4.306845         0.170215        -0.636136
 H         4.262430        -0.753850        -2.237466
 H         0.620773        -0.329447        -2.186123
