19
Iteration:  1932charge 0 multiplicity 1
 C        -0.016074        -0.092855         0.094312
 C         1.595804         0.024763         0.090741
 O         1.902508         1.436056         0.326954
 C         2.191456        -0.899767         1.021221
 C         2.832791        -1.949954         0.505611
 C         3.013628        -1.846951        -1.025293
 C         3.714941        -0.540796        -1.480852
 C         2.236919        -0.534450        -1.323554
 O         1.530424        -0.570081        -2.510695
 H        -0.395011         0.458446        -0.790869
 H        -0.419325        -1.073517         0.046380
 H        -0.297363         0.317318         1.106839
 H         2.611139         1.694129        -0.220964
 H         1.860684        -0.857602         2.101264
 H         3.206166        -2.792392         1.069761
 H         2.994170        -2.689610        -1.692715
 H         4.191233         0.177705        -0.784403
 H         4.082672        -0.568695        -2.475297
 H         1.521138         0.364683        -2.786764
