19
Iteration:  3397charge 0 multiplicity 1
 C         0.039082        -0.200697        -0.169124
 C         1.528981        -0.014968         0.091562
 O         2.141130         1.285510         0.319240
 C         2.071784        -0.989735         1.130613
 C         2.963559        -1.876576         0.501930
 C         3.069358        -1.700203        -0.971691
 C         3.649068        -0.313227        -1.545907
 C         2.196963        -0.490986        -1.280741
 O         1.346664        -0.601596        -2.408116
 H        -0.094344         0.166611        -1.106780
 H        -0.028728        -1.376772        -0.173902
 H        -0.615647         0.412282         0.432907
 H         1.802892         1.868093         1.105274
 H         1.847748        -1.099374         2.245375
 H         3.427781        -2.658406         1.071526
 H         3.106930        -2.478569        -1.691455
 H         4.386766         0.334305        -1.004931
 H         4.190351        -0.504580        -2.457202
 H         1.064676         0.234695        -2.857385
