19
Iteration:  1433charge 0 multiplicity 1
 C         0.033977        -0.082605        -0.129277
 C         1.621489        -0.013931        -0.022746
 O         2.044960         1.285246         0.378080
 C         2.103036        -0.972379         1.042951
 C         2.917806        -1.929195         0.590912
 C         2.986476        -1.729841        -0.935634
 C         3.811702        -0.484186        -1.427803
 C         2.260668        -0.559118        -1.308386
 O         1.321472        -0.472983        -2.489606
 H        -0.248360         0.435446        -1.041321
 H        -0.248981        -1.110851        -0.127104
 H        -0.368159         0.215674         0.849844
 H         1.209079         1.735330         0.253058
 H         1.641606        -0.605601         1.996668
 H         3.235708        -2.768239         1.210836
 H         2.967788        -2.598244        -1.610555
 H         4.349168         0.117760        -0.725396
 H         4.185391        -0.596853        -2.493675
 H         1.713454         0.239353        -3.025414
