19
Iteration:  4088charge 0 multiplicity 1
 C        -0.031671        -0.091179        -0.061623
 C         1.523084        -0.070988         0.018319
 O         1.948072         1.306032         0.312825
 C         2.134406        -1.011666         1.009119
 C         2.968172        -1.857039         0.474394
 C         3.139185        -1.755853        -1.025241
 C         3.716385        -0.422666        -1.382162
 C         2.210119        -0.551085        -1.281397
 O         1.375759        -0.518709        -2.378772
 H        -0.278656        -0.389964        -1.156350
 H        -0.401367        -0.878655         0.534561
 H        -0.428913         0.941638         0.224418
 H         2.943043         1.388790         0.089435
 H         1.642863        -0.950420         2.005945
 H         3.553527        -2.618078         1.069395
 H         3.315426        -2.675028        -1.663904
 H         4.463562         0.247913        -0.784113
 H         4.109086        -0.154415        -2.443688
 H         1.093735         0.419432        -2.613902
