19
Iteration:  2514charge 0 multiplicity 1
 C         0.083572        -0.185383        -0.041590
 C         1.557591        -0.005179         0.084711
 O         1.781874         1.394233         0.238954
 C         2.301325        -0.849912         1.092492
 C         2.965880        -1.889308         0.618312
 C         2.886878        -1.857890        -0.962287
 C         3.703177        -0.673824        -1.555599
 C         2.207378        -0.558734        -1.265008
 O         1.490800        -0.339168        -2.460671
 H        -0.148687         0.390771        -1.023756
 H        -0.259376        -1.160671        -0.238070
 H        -0.571972         0.299364         0.741036
 H         2.694822         1.510309         0.616513
 H         2.064110        -0.770187         2.215881
 H         3.681631        -2.614881         1.135114
 H         2.577187        -2.764966        -1.489241
 H         4.466629         0.019261        -1.143726
 H         3.701330        -0.816772        -2.576610
 H         2.069059         0.084277        -3.119775
