19
Iteration:  1556charge 0 multiplicity 1
 C         0.041762        -0.108803        -0.025800
 C         1.621675        -0.000914         0.064245
 O         1.957085         1.355790         0.110651
 C         2.217937        -0.997492         1.118968
 C         2.764611        -2.040624         0.453990
 C         3.039099        -1.781293        -0.950959
 C         3.758972        -0.473952        -1.342756
 C         2.242723        -0.546460        -1.200165
 O         1.421810        -0.373384        -2.431393
 H        -0.361001         0.211529        -0.946288
 H        -0.211697        -1.102302         0.103804
 H        -0.325854         0.529259         0.757642
 H         1.169997         1.900147        -0.199192
 H         1.823461        -1.088935         2.084919
 H         3.393341        -2.789272         0.894974
 H         2.893412        -2.581701        -1.680224
 H         4.320693        -0.154347        -0.541855
 H         4.136558        -0.330272        -2.360842
 H         1.976407        -0.106634        -3.169339
