19
Iteration:  3981
 C         0.004055        -0.112356        -0.155199
 C         1.577415        -0.048573         0.042880
 O         2.078303         1.331189         0.273160
 C         2.152465        -0.979535         1.100753
 C         2.946701        -1.889721         0.566704
 C         3.091944        -1.728671        -0.967762
 C         3.621873        -0.310068        -1.501583
 C         2.204952        -0.589526        -1.305224
 O         1.340325        -0.619704        -2.432582
 H        -0.432206         0.926413        -0.191517
 H        -0.261062        -0.521991        -1.087170
 H        -0.618534        -0.617404         0.564894
 H         2.204659         1.369115         1.283358
 H         2.029300        -1.059088         2.167956
 H         3.588619        -2.527014         1.089691
 H         3.448502        -2.579002        -1.562039
 H         4.141461         0.276960        -0.686702
 H         3.917577        -0.313586        -2.569901
 H         1.207463         0.364844        -2.610477
