19
Iteration:   366
 C        -0.046943        -0.117483        -0.117821
 C         1.528880        -0.088985        -0.080465
 O         1.871856         1.360634         0.279270
 C         2.085048        -0.938392         1.040466
 C         2.974767        -1.871841         0.596936
 C         2.940917        -1.794806        -0.881439
 C         3.794354        -0.485942        -1.367079
 C         2.254644        -0.602313        -1.319088
 O         1.497994        -0.376205        -2.457109
 H        -0.548077         0.526630         0.598697
 H        -0.408808         0.251157        -1.080351
 H        -0.441038        -1.186044         0.111532
 H         2.604465         1.187741         0.834465
 H         2.172521        -0.591257         2.056225
 H         3.638288        -2.617691         1.037918
 H         3.047207        -2.551755        -1.685034
 H         4.453925        -0.117217        -0.586422
 H         4.167928        -0.484529        -2.473140
 H         2.120803        -0.554830        -3.207100
