19
Iteration:   830
 C        -0.004324        -0.065506        -0.100805
 C         1.470372        -0.058243         0.041931
 O         1.901700         1.334634         0.326877
 C         2.151671        -0.825141         1.029440
 C         2.928207        -1.776477         0.652711
 C         2.989176        -1.913346        -0.885491
 C         3.736065        -0.613119        -1.367088
 C         2.145107        -0.699599        -1.334123
 O         1.616214        -0.303724        -2.582026
 H        -0.722802        -0.045520         0.732082
 H        -0.132826         0.825650        -0.705538
 H        -0.383896        -0.989729        -0.672070
 H         2.580514         1.558578        -0.254971
 H         2.030997        -0.489730         2.046878
 H         3.638690        -2.274381         1.342216
 H         2.727851        -2.843089        -1.418839
 H         4.426339        -0.332388        -0.649337
 H         4.217835        -0.600382        -2.416920
 H         1.449256        -1.068901        -3.136464
