19
Iteration:   857charge 0 multiplicity 1
 C        -0.008158        -0.053035        -0.257412
 C         1.538196        -0.040115        -0.011891
 O         1.917264         1.411778         0.274678
 C         2.072987        -0.929832         1.109004
 C         2.917154        -1.890513         0.615243
 C         3.022110        -1.816543        -0.823809
 C         3.729354        -0.589608        -1.412809
 C         2.272252        -0.510549        -1.356641
 O         1.534292        -0.424829        -2.460056
 H        -0.447079        -0.407860         0.698837
 H        -0.354752         1.010032        -0.327711
 H        -0.529852        -0.721146        -0.886271
 H         2.769028         1.534251        -0.062674
 H         1.869872        -0.863735         2.187630
 H         3.461625        -2.672393         1.120473
 H         2.920787        -2.752991        -1.353486
 H         4.559981        -0.044137        -0.838124
 H         4.168924        -0.906000        -2.305211
 H         0.946036        -1.182773        -2.389953
