19
Iteration:  2763charge 0 multiplicity 1
 C         0.065301        -0.144241         0.204061
 C         1.560186        -0.077174         0.025051
 O         1.777765         1.283048         0.120741
 C         2.207856        -0.858136         1.030051
 C         2.894491        -1.862465         0.535211
 C         2.920664        -1.834979        -1.004923
 C         3.794417        -0.576621        -1.387447
 C         2.211987        -0.538949        -1.366734
 O         1.518865        -0.362769        -2.513369
 H        -0.434297         0.895121         0.221798
 H        -0.517325        -0.704849        -0.460907
 H        -0.189683        -0.467542         1.264231
 H         2.730432         1.331596         0.204820
 H         2.101542        -0.850620         2.104079
 H         3.607265        -2.443979         1.096587
 H         3.009112        -2.755930        -1.601263
 H         4.378053        -0.238704        -0.580036
 H         4.265449        -0.530619        -2.397189
 H         1.550432         0.560255        -2.787288
