19
Iteration:  1655charge 0 multiplicity 1
 C         0.034783        -0.024899        -0.025142
 C         1.555307        -0.079327        -0.034602
 O         1.891566         1.349223         0.215481
 C         2.154653        -0.956506         1.039931
 C         2.932716        -1.972897         0.548866
 C         3.001679        -1.783907        -0.935993
 C         3.850514        -0.497542        -1.278171
 C         2.235132        -0.609635        -1.316341
 O         1.332608        -0.399544        -2.453395
 H        -0.273215         0.943861        -0.383579
 H        -0.310477        -0.830840        -0.741168
 H        -0.384032        -0.315634         0.949980
 H         2.454714         1.654712        -0.507918
 H         1.833382        -0.789505         2.119630
 H         3.427891        -2.811806         1.101443
 H         3.056035        -2.766771        -1.426120
 H         4.599953        -0.047745        -0.602951
 H         4.242429        -0.539679        -2.328377
 H         1.695068         0.214553        -3.134377
