19
Iteration:  1803charge 0 multiplicity 1
 C         0.035130        -0.123292         0.026360
 C         1.600463         0.014200        -0.113975
 O         1.994296         1.364586         0.275337
 C         2.215874        -0.852594         0.999934
 C         2.867122        -2.009125         0.504922
 C         2.987336        -1.819693        -0.963239
 C         3.744555        -0.469004        -1.264693
 C         2.177068        -0.617947        -1.302736
 O         1.338059        -0.429440        -2.450830
 H        -0.577174         0.778011        -0.220406
 H        -0.209424        -1.003530        -0.506088
 H        -0.160593        -0.445302         1.108317
 H         2.153180         1.946770        -0.568149
 H         1.996427        -0.841284         2.083804
 H         3.200434        -2.899789         1.158679
 H         3.288957        -2.667496        -1.611516
 H         4.342630         0.118574        -0.566641
 H         4.229869        -0.318159        -2.348304
 H         1.995575        -0.289101        -3.139639
