19
Iteration:  3724
 C        -0.059048         0.074907        -0.142908
 C         1.501860        -0.109570        -0.021679
 O         1.965276         1.339893         0.384422
 C         2.009633        -1.102844         1.004067
 C         3.058861        -1.909130         0.529840
 C         3.163890        -1.675666        -0.943890
 C         3.796286        -0.327300        -1.461456
 C         2.266936        -0.525607        -1.310951
 O         1.287239        -0.705387        -2.401973
 H        -0.280331         0.509259        -1.058007
 H        -0.469247        -1.030850        -0.083307
 H        -0.273421         0.740340         0.646634
 H         2.790111         1.138373         0.859998
 H         1.742003        -1.060960         2.109796
 H         3.752916        -2.439161         1.129265
 H         3.284204        -2.558399        -1.593693
 H         4.259267         0.461240        -0.837474
 H         3.972318        -0.285206        -2.489431
 H         1.428226         0.074646        -3.017798
