19
Iteration:  3820charge 0 multiplicity 1
 C        -0.039739        -0.095955         0.047551
 C         1.550588         0.011442        -0.042796
 O         1.834688         1.356247         0.277213
 C         2.254797        -0.997128         1.017959
 C         3.022429        -1.926683         0.593521
 C         3.070297        -1.836460        -0.884322
 C         3.752118        -0.599165        -1.469460
 C         2.198824        -0.522375        -1.362251
 O         1.430904        -0.385598        -2.497638
 H        -0.561370         0.803488        -0.429131
 H        -0.188575        -1.113640        -0.528812
 H        -0.207711        -0.211671         1.102394
 H         1.031763         1.745758         0.499801
 H         2.240328        -0.533919         2.082787
 H         3.459469        -2.694609         1.194021
 H         3.055526        -2.755052        -1.469845
 H         4.425088         0.168049        -0.969941
 H         4.024589        -0.772930        -2.451816
 H         1.874568         0.238644        -3.088580
