19
Iteration:  3792charge 0 multiplicity 1
 C        -0.010210        -0.100137         0.055310
 C         1.539490        -0.039818         0.018365
 O         2.034436         1.328086         0.272754
 C         2.148891        -0.905387         1.082086
 C         2.962653        -1.827265         0.434184
 C         2.962711        -1.747322        -1.027986
 C         3.768362        -0.403104        -1.332903
 C         2.124600        -0.570344        -1.320017
 O         1.512801        -0.665408        -2.531324
 H        -0.483079         0.849138        -0.144161
 H        -0.316042        -0.831059        -0.713623
 H        -0.338766        -0.400639         1.083062
 H         1.372337         1.816414         0.713983
 H         1.925032        -0.945891         2.121832
 H         3.485079        -2.572765         1.051002
 H         2.934640        -2.625261        -1.671593
 H         4.270846         0.121601        -0.553638
 H         3.979507        -0.262841        -2.461410
 H         1.581044         0.169883        -2.984410
