19
Iteration:  3735charge 0 multiplicity 1
 C         0.037037         0.057091        -0.114149
 C         1.545857        -0.059928        -0.022365
 O         1.952172         1.261798         0.294040
 C         2.039853        -1.096096         0.965175
 C         2.987937        -1.850203         0.525923
 C         3.276401        -1.670715        -0.941961
 C         3.692461        -0.341569        -1.452167
 C         2.222565        -0.529459        -1.338779
 O         1.319695        -0.673717        -2.340075
 H        -0.289345         0.555818        -0.962906
 H        -0.639710        -0.903908        -0.089839
 H        -0.362053         0.574510         0.721801
 H         2.602164         1.253224         1.093270
 H         1.561076        -1.162837         1.991387
 H         3.449254        -2.585041         1.126987
 H         3.352961        -2.533713        -1.611939
 H         4.166293         0.327660        -0.695804
 H         4.286639        -0.394966        -2.287684
 H         1.012634         0.150568        -2.793619
