19
Iteration:  1173charge 0 multiplicity 1
 C        -0.017945        -0.014912        -0.109487
 C         1.487190         0.040365         0.018172
 O         1.855382         1.399889         0.330267
 C         2.040089        -1.068507         1.059085
 C         3.073786        -1.899009         0.600081
 C         3.040148        -1.784644        -0.961983
 C         3.767952        -0.512173        -1.466238
 C         2.182588        -0.609989        -1.286487
 O         1.532622        -0.512629        -2.531825
 H        -0.350055         0.651385        -0.920830
 H        -0.565172        -0.963965        -0.149409
 H        -0.551355         0.388868         0.827656
 H         2.827153         1.374417         0.702533
 H         1.593595        -0.996910         2.081248
 H         3.634899        -2.677868         1.195710
 H         3.065774        -2.755411        -1.481007
 H         4.424244        -0.033876        -0.696424
 H         4.047335        -0.504764        -2.471469
 H         1.890503         0.316289        -2.885854
