19
Iteration:  1747
 C         0.002682        -0.054656        -0.093457
 C         1.531190        -0.057197         0.008839
 O         1.979126         1.375964         0.381180
 C         2.186580        -0.930575         1.024633
 C         2.939082        -1.872487         0.536351
 C         3.095010        -1.847096        -0.931800
 C         3.665837        -0.660805        -1.538929
 C         2.201570        -0.500464        -1.313160
 O         1.434445        -0.433848        -2.437875
 H        -0.284325         0.007020        -1.172465
 H        -0.410011        -0.990939         0.239433
 H        -0.514488         0.689728         0.539054
 H         1.285198         1.767244         0.890532
 H         1.947576        -0.791726         2.025865
 H         3.591332        -2.557576         1.147922
 H         2.932164        -2.784291        -1.476995
 H         4.320233        -0.126105        -0.832460
 H         4.208619        -0.568134        -2.554502
 H         1.961086         0.168872        -2.989187
