19
Iteration:  2686
 C         0.066777        -0.137588        -0.015138
 C         1.644778         0.061546         0.026071
 O         1.805381         1.454359         0.378712
 C         2.255416        -0.884905         0.996881
 C         2.823567        -1.967438         0.451856
 C         3.005970        -1.771772        -1.028588
 C         3.786839        -0.617226        -1.442023
 C         2.265824        -0.465892        -1.318865
 O         1.390126        -0.589077        -2.452031
 H        -0.615344         0.161577        -0.881231
 H        -0.112839        -1.152703         0.210242
 H        -0.370130         0.359214         0.865689
 H         2.778334         1.643480         0.653248
 H         1.927240        -0.803061         2.064711
 H         3.343639        -2.682490         1.077659
 H         2.975938        -2.648644        -1.584786
 H         4.420772        -0.069900        -0.808422
 H         4.147187        -0.772345        -2.491783
 H         1.296434         0.330278        -2.758727
