19
Iteration:  1653charge 0 multiplicity 1
 C         0.026906        -0.039689        -0.044060
 C         1.559664        -0.081241        -0.018062
 O         1.893703         1.351259         0.234458
 C         2.142912        -0.950994         1.037669
 C         2.942599        -1.957796         0.553495
 C         3.004189        -1.811104        -0.932696
 C         3.850082        -0.497499        -1.295218
 C         2.218361        -0.596594        -1.321071
 O         1.347675        -0.395294        -2.447381
 H        -0.329332         0.963262        -0.373106
 H        -0.338093        -0.757235        -0.774637
 H        -0.433959        -0.278627         0.991249
 H         2.448758         1.663377        -0.579535
 H         1.956919        -0.763815         2.072030
 H         3.432278        -2.816575         1.059390
 H         3.067406        -2.803130        -1.412081
 H         4.526590        -0.103479        -0.620342
 H         4.284316        -0.533410        -2.336703
 H         1.692953         0.162570        -3.156036
