19
Iteration:  4986
 C         0.097460        -0.284110         0.096707
 C         1.655537         0.061014         0.077808
 O         1.865026         1.483263         0.256509
 C         2.288711        -0.850874         1.064057
 C         2.834961        -1.990327         0.447610
 C         3.002449        -1.854634        -0.936799
 C         3.687914        -0.424594        -1.357690
 C         2.164321        -0.606805        -1.284366
 O         1.374445        -0.498409        -2.610132
 H        -0.613364         0.547083        -0.274422
 H        -0.054591        -1.161424        -0.509776
 H        -0.246479        -0.459293         1.205236
 H         2.671690         1.742625        -0.127302
 H         2.120925        -0.866145         2.160094
 H         3.326860        -2.851854         0.888362
 H         2.936221        -2.585098        -1.683797
 H         4.245960         0.336250        -0.679068
 H         4.180048        -0.422878        -2.361620
 H         1.930035         0.178771        -3.030658
