19
Iteration:  4451
 C         0.028802        -0.359048         0.055197
 C         1.565809        -0.075328         0.008395
 O         1.803401         1.378837         0.220669
 C         2.241267        -0.897293         1.061612
 C         2.964157        -1.968214         0.481402
 C         2.867196        -1.843528        -1.056455
 C         3.818088        -0.538261        -1.425530
 C         2.277502        -0.527332        -1.296795
 O         1.462093        -0.199456        -2.422564
 H        -0.125511        -1.431077         0.320892
 H        -0.379122         0.361167         0.994350
 H        -0.574337        -0.125894        -0.817178
 H         2.545546         1.504365        -0.319926
 H         2.247486        -0.680556         2.097612
 H         3.581353        -2.611523         1.101866
 H         2.773781        -2.591978        -1.867357
 H         4.336105        -0.313512        -0.486507
 H         4.129526        -0.367380        -2.428877
 H         1.174422         0.709032        -2.085713
