19
Iteration:  4647charge 0 multiplicity 1
 C         0.101371         0.058075         0.003129
 C         1.521186        -0.039776         0.103847
 O         1.956951         1.326609         0.387491
 C         2.086841        -1.087620         0.994675
 C         2.922957        -1.924858         0.391453
 C         3.182445        -1.673960        -1.013960
 C         3.632910        -0.363600        -1.484176
 C         2.185498        -0.516793        -1.245474
 O         1.439050        -0.641521        -2.465396
 H        -0.205679        -0.847078        -0.539057
 H        -0.482198         0.057164         0.953846
 H        -0.134495         0.900661        -0.573656
 H         2.831636         1.433535         0.154540
 H         1.866398        -1.199400         2.074686
 H         3.363917        -2.758399         0.894035
 H         3.220303        -2.410623        -1.745292
 H         4.330290         0.231570        -0.875504
 H         3.941501        -0.482419        -2.564577
 H         0.450472        -0.496540        -2.304580
