19
Iteration:  4733charge 0 multiplicity 1
 C         0.057335        -0.355799         0.130182
 C         1.638426        -0.015610         0.048624
 O         1.703719         1.424491         0.241426
 C         2.341454        -0.898416         1.076838
 C         2.820793        -1.993392         0.427374
 C         2.875034        -1.743706        -1.032667
 C         3.764896        -0.685518        -1.447745
 C         2.228733        -0.442743        -1.292458
 O         1.594032        -0.237921        -2.522429
 H        -0.093999        -1.300094         0.590099
 H        -0.271725         0.470122         0.881440
 H        -0.468853        -0.161159        -0.741861
 H         2.687021         1.717465         0.325061
 H         2.545118        -0.713337         2.188283
 H         3.409924        -2.799351         0.931767
 H         2.641896        -2.493274        -1.741884
 H         4.438840        -0.289416        -0.666431
 H         4.088238        -0.504165        -2.499526
 H         0.651543        -0.467910        -2.483009
