19
Iteration:  1096charge 0 multiplicity 1
 C         0.022118        -0.137119        -0.113125
 C         1.589986        -0.071723         0.029333
 O         1.867813         1.366085         0.161521
 C         2.187150        -0.969125         1.104072
 C         2.811303        -1.988815         0.541180
 C         2.962847        -1.724155        -0.952701
 C         3.775213        -0.432301        -1.361905
 C         2.237873        -0.568938        -1.256723
 O         1.538600        -0.447142        -2.409493
 H        -0.413444         0.636843        -0.770336
 H        -0.194208        -1.041502        -0.786766
 H        -0.516849        -0.280311         0.856283
 H         2.711429         1.623427        -0.135196
 H         1.944411        -0.824493         2.178119
 H         3.267539        -2.797607         1.172213
 H         2.830371        -2.530257        -1.701926
 H         4.348687        -0.029116        -0.555207
 H         4.145594        -0.457804        -2.407832
 H         1.450027         0.512124        -2.542822
