19
Iteration:  2449charge 0 multiplicity 1
 C         0.094716        -0.154690         0.259949
 C         1.565797        -0.003931         0.023738
 O         1.840601         1.461413         0.143081
 C         2.230379        -0.926590         1.024629
 C         2.860963        -1.955116         0.459423
 C         2.849689        -1.868368        -0.982605
 C         3.649328        -0.524531        -1.350819
 C         2.201987        -0.548657        -1.287090
 O         1.654875        -0.485790        -2.575451
 H        -0.433546         0.406454        -0.619999
 H        -0.104886        -1.216222         0.279471
 H        -0.282029         0.246516         1.259755
 H         2.728984         1.541216        -0.097632
 H         2.235973        -0.559977         2.054265
 H         3.130954        -2.887990         1.026249
 H         2.973188        -2.594311        -1.816199
 H         4.262255         0.091173        -0.659965
 H         3.932778        -0.473051        -2.360233
 H         1.308527         0.426752        -2.704109
