19
Iteration:  2485
 C         0.122943        -0.267944        -0.076657
 C         1.616626         0.020206         0.035943
 O         1.845519         1.419927         0.189867
 C         2.177404        -0.870698         1.064177
 C         2.935450        -1.886582         0.583652
 C         2.940704        -1.861962        -0.973230
 C         3.797055        -0.706849        -1.424469
 C         2.244859        -0.539688        -1.336215
 O         1.302124        -0.268089        -2.329263
 H        -0.131807        -0.148344        -1.108144
 H        -0.141436        -1.380820         0.028406
 H        -0.485759         0.455866         0.546932
 H         2.741589         1.563216         0.053812
 H         2.232838        -0.656379         2.170390
 H         3.362440        -2.761396         1.095403
 H         2.988169        -2.776369        -1.489952
 H         4.502964        -0.033835        -0.901643
 H         4.085972        -0.984067        -2.491968
 H         1.564399         0.474107        -2.926814
