19
Iteration:  4687
 C         0.078019        -0.160581         0.071183
 C         1.548618        -0.055652        -0.006321
 O         1.908044         1.315013         0.250077
 C         2.213983        -0.997166         1.087935
 C         2.930283        -1.927481         0.479544
 C         3.081043        -1.798658        -0.985913
 C         3.695275        -0.492662        -1.352736
 C         2.127150        -0.546848        -1.325537
 O         1.425914        -0.232924        -2.502690
 H        -0.263181        -1.117453        -0.331410
 H        -0.342452        -0.123889         1.150904
 H        -0.352486         0.693745        -0.450672
 H         2.705317         1.425182        -0.420313
 H         2.089516        -0.745307         2.108916
 H         3.604254        -2.640289         0.869021
 H         2.980540        -2.645117        -1.699344
 H         4.258483         0.034082        -0.645168
 H         4.189573        -0.696097        -2.276192
 H         0.806907        -0.928053        -2.663673
