19
Iteration:  2855
 C        -0.084253        -0.031563         0.037489
 C         1.503999        -0.065632         0.050863
 O         1.910944         1.341260         0.274418
 C         2.148896        -1.011777         1.069081
 C         3.030287        -1.812048         0.471224
 C         3.181505        -1.768904        -0.961314
 C         3.706668        -0.513528        -1.451341
 C         2.124693        -0.710462        -1.320414
 O         1.424717        -0.447759        -2.528855
 H        -0.518646         0.409671        -0.826871
 H        -0.660505        -1.005705         0.194102
 H        -0.351499         0.679162         0.756074
 H         2.880134         1.480981         0.626794
 H         2.121383        -0.969691         2.199694
 H         3.472542        -2.549605         1.116789
 H         3.401080        -2.692915        -1.393689
 H         4.281465         0.141349        -0.840179
 H         3.980526        -0.459295        -2.585988
 H         1.788621         0.440249        -2.711007
