19
Iteration:    37charge 0 multiplicity 1
 C        -0.016034        -0.062707         0.082401
 C         1.552228         0.021776        -0.046424
 O         1.882812         1.304783         0.418590
 C         2.128662        -0.927214         0.973466
 C         2.926683        -1.831462         0.511804
 C         3.025324        -1.762318        -0.985216
 C         3.764307        -0.469124        -1.402655
 C         2.194279        -0.591271        -1.371844
 O         1.512637        -0.503009        -2.523659
 H        -0.427432         0.743745         0.784205
 H        -0.500835         0.097191        -0.912147
 H        -0.259614        -0.984280         0.554432
 H         2.756896         1.519030         0.108849
 H         1.706877        -0.919859         1.969611
 H         3.154815        -2.787837         1.018035
 H         3.060222        -2.676967        -1.631306
 H         4.355690         0.046863        -0.589365
 H         4.254456        -0.415732        -2.386301
 H         1.778107        -1.166600        -3.153829
