19
Iteration:  3229
 C        -0.033146        -0.120465         0.051251
 C         1.494620        -0.024513        -0.014906
 O         1.881484         1.335526         0.308937
 C         2.237614        -0.903896         1.072005
 C         3.045439        -1.871109         0.551172
 C         2.959009        -1.778645        -0.945097
 C         3.746135        -0.592088        -1.450273
 C         2.243056        -0.552386        -1.317568
 O         1.494890        -0.493655        -2.606408
 H        -0.791504         0.587016        -0.550101
 H        -0.457502        -1.082188        -0.022024
 H        -0.177356         0.131182         1.168455
 H         1.025184         1.811764         0.619015
 H         2.085628        -0.611499         2.102279
 H         3.770766        -2.475191         1.112606
 H         2.997479        -2.660403        -1.473510
 H         4.527916        -0.009378        -0.860678
 H         4.054735        -0.625886        -2.473409
 H         1.749120         0.384502        -3.011474
