19
Iteration:  1290
 C        -0.034204        -0.114183        -0.120651
 C         1.549199         0.007596        -0.031384
 O         1.811586         1.406237         0.308372
 C         2.208544        -0.881520         0.998881
 C         3.039815        -1.850006         0.571632
 C         2.962232        -1.875895        -0.880714
 C         3.816847        -0.677439        -1.355012
 C         2.175955        -0.610950        -1.301908
 O         1.461276        -0.363157        -2.539134
 H        -0.186842         0.710542        -0.829985
 H        -0.283800        -1.136604        -0.532354
 H        -0.564568        -0.015080         0.797430
 H         2.298240         1.332761         1.212465
 H         1.923059        -0.733249         2.030646
 H         3.603265        -2.701914         0.964646
 H         2.878409        -2.801055        -1.460728
 H         4.515871        -0.129232        -0.579585
 H         3.991494        -0.782728        -2.401271
 H         1.946638         0.410814        -2.865635
