19
Iteration:  1905
 C         0.096389        -0.161810        -0.177512
 C         1.630075         0.033744         0.086468
 O         1.941998         1.375573         0.274489
 C         2.143561        -0.947975         1.127286
 C         2.993231        -1.932900         0.552973
 C         2.857786        -1.780090        -0.970133
 C         3.720469        -0.560859        -1.445151
 C         2.195641        -0.428951        -1.301636
 O         1.417564        -0.496243        -2.452961
 H        -0.261264         0.284533        -1.130181
 H        -0.098332        -1.306904        -0.171360
 H        -0.375412         0.329276         0.662073
 H         2.876276         1.396593         0.351949
 H         2.276512        -0.583603         2.136931
 H         3.392423        -2.878614         1.018935
 H         2.772711        -2.686927        -1.626133
 H         4.416279        -0.087241        -0.708784
 H         3.974207        -0.573394        -2.534294
 H         0.740170         0.195852        -2.391662
