19
Iteration:  3525charge 0 multiplicity 1
 C         0.116195        -0.183524        -0.143039
 C         1.583907         0.015160        -0.026788
 O         1.847734         1.359355         0.348718
 C         2.215456        -0.888593         1.051753
 C         2.897304        -1.938836         0.529867
 C         3.042651        -1.774087        -0.963558
 C         3.774754        -0.551607        -1.437804
 C         2.244960        -0.562806        -1.256029
 O         1.354503        -0.477059        -2.420501
 H        -0.329021         0.405121        -0.952890
 H        -0.011882        -1.225472        -0.258740
 H        -0.199384        -0.066102         0.921139
 H         1.488887         1.977782        -0.252030
 H         2.411077        -0.644399         2.112915
 H         3.485528        -2.565842         1.157415
 H         2.981384        -2.583070        -1.606565
 H         4.267287         0.126226        -0.658539
 H         4.076920        -0.557699        -2.463858
 H         1.203125         0.432553        -2.680079
