19
Iteration:  4301charge 0 multiplicity 1
 C        -0.005441         0.120230        -0.009796
 C         1.487129        -0.075161        -0.011425
 O         2.021327         1.228085         0.420189
 C         1.994530        -1.135662         0.934157
 C         3.017709        -1.934465         0.384716
 C         3.185068        -1.571645        -0.990528
 C         3.758386        -0.253568        -1.393949
 C         2.197168        -0.513859        -1.271753
 O         1.360011        -0.750399        -2.417605
 H        -0.467282        -0.921135         0.022392
 H        -0.309322         0.671808         0.787079
 H        -0.558301         0.568878        -0.915542
 H         2.900297         1.322068         0.016854
 H         1.649061        -1.094302         1.982548
 H         3.657874        -2.629612         0.977307
 H         3.205458        -2.472691        -1.721586
 H         4.481367         0.191095        -0.651665
 H         4.032744        -0.212017        -2.474575
 H         0.807025         0.099210        -2.538210
