19
Iteration:  4906
 C         0.068496         0.073255        -0.058193
 C         1.523645        -0.116913         0.007247
 O         1.948121         1.198303         0.438326
 C         2.139365        -1.001716         1.059043
 C         3.025711        -1.853464         0.531763
 C         3.092441        -1.637297        -0.968959
 C         3.713409        -0.374742        -1.521968
 C         2.179876        -0.621454        -1.313934
 O         1.331250        -0.610656        -2.526765
 H        -0.155330        -0.102361        -1.144087
 H        -0.389276        -0.885400         0.514797
 H        -0.317888         1.007884         0.325005
 H         2.828626         1.184419         0.633275
 H         1.938158        -0.803914         2.077488
 H         3.800304        -2.394231         1.115326
 H         3.056041        -2.478268        -1.722090
 H         4.088167         0.330186        -0.806906
 H         3.994419        -0.329947        -2.551575
 H         0.882624         0.253779        -2.626860
