19
Iteration:  1916charge 0 multiplicity 1
 C         0.105182        -0.116635        -0.076783
 C         1.561137         0.066538        -0.027138
 O         1.938812         1.443526         0.334833
 C         2.225656        -0.983141         1.113330
 C         2.843254        -1.961225         0.510855
 C         2.947345        -1.752026        -0.946676
 C         3.680892        -0.516433        -1.472776
 C         2.170780        -0.557890        -1.225460
 O         1.496293        -0.529549        -2.489524
 H        -0.371472         0.204373        -1.027450
 H        -0.074873        -1.259262        -0.083408
 H        -0.506473         0.254728         0.724748
 H         2.830897         1.518543         0.039818
 H         2.170221        -0.793353         2.165663
 H         3.496678        -2.722482         0.999615
 H         2.825997        -2.649845        -1.598198
 H         4.587762        -0.266376        -0.927553
 H         3.842109        -0.497215        -2.584106
 H         0.939830         0.250643        -2.515568
