19
Iteration:   242charge 0 multiplicity 1
 C         0.034758        -0.108413        -0.060416
 C         1.544047        -0.124828        -0.045371
 O         1.859873         1.345694         0.278410
 C         2.084111        -0.920165         1.065498
 C         2.873424        -1.866927         0.567788
 C         3.001148        -1.815839        -0.952209
 C         3.780944        -0.497239        -1.296844
 C         2.253517        -0.569810        -1.369252
 O         1.485990        -0.451829        -2.517362
 H        -0.180507         0.675416         0.718909
 H        -0.381080         0.183075        -1.057845
 H        -0.513035        -0.966445         0.197488
 H         2.781189         1.440380         0.221328
 H         1.819746        -0.633259         2.109792
 H         3.494704        -2.589798         1.099549
 H         3.255023        -2.719339        -1.504896
 H         4.267444         0.133520        -0.569153
 H         4.398181        -0.606491        -2.204938
 H         1.766332         0.423907        -2.882419
