19
Iteration:  2337charge 0 multiplicity 1
 C         0.030576         0.036133        -0.057831
 C         1.568928        -0.040770        -0.002808
 O         1.889657         1.346785         0.507624
 C         2.183159        -0.931183         0.975631
 C         2.996726        -1.837361         0.492211
 C         3.003712        -1.790834        -1.014860
 C         3.715772        -0.521690        -1.536204
 C         2.238739        -0.570162        -1.329488
 O         1.371387        -0.623542        -2.445560
 H        -0.102491         0.458076        -1.063955
 H        -0.448315        -1.002465        -0.008316
 H        -0.526816         0.652892         0.602692
 H         2.835284         1.360259         0.903546
 H         2.073130        -0.854065         2.088847
 H         3.501477        -2.527221         1.157737
 H         3.021050        -2.745045        -1.457839
 H         4.364483         0.037872        -0.887735
 H         4.119015        -0.528337        -2.545325
 H         1.243462         0.249893        -2.881576
