19
Iteration:  4453
 C         0.028259        -0.340830         0.064380
 C         1.561132        -0.079589         0.005323
 O         1.789601         1.387120         0.244943
 C         2.244139        -0.913131         1.064206
 C         2.962660        -1.955930         0.499549
 C         2.871790        -1.848972        -1.063371
 C         3.822930        -0.557299        -1.425571
 C         2.284736        -0.542963        -1.327195
 O         1.465688        -0.195582        -2.426958
 H        -0.086791        -1.434165         0.352382
 H        -0.352459         0.287248         0.936645
 H        -0.553050        -0.047785        -0.851809
 H         2.554408         1.492294        -0.419268
 H         2.258862        -0.693715         2.065210
 H         3.599901        -2.539669         1.065423
 H         2.748012        -2.545715        -1.821093
 H         4.333642        -0.248313        -0.461092
 H         4.125150        -0.348457        -2.456792
 H         1.090743         0.691945        -2.090808
