19
Iteration:  1981charge 0 multiplicity 1
 C        -0.034901         0.004430         0.175088
 C         1.524099        -0.079600         0.038748
 O         1.961626         1.359847         0.075991
 C         2.187199        -0.956045         1.046491
 C         2.938734        -1.935588         0.491471
 C         3.037682        -1.852380        -0.965575
 C         3.620043        -0.409314        -1.332957
 C         2.166450        -0.655838        -1.297780
 O         1.491899        -0.369749        -2.490464
 H        -0.585969         0.679226        -0.473973
 H        -0.359735        -1.076416        -0.075354
 H        -0.175148         0.020202         1.197823
 H         2.976573         1.423170         0.277333
 H         2.119305        -0.782143         2.062664
 H         3.260893        -2.902311         0.858276
 H         3.195237        -2.686880        -1.681508
 H         4.195382        -0.175481        -0.475986
 H         4.023897        -0.189236        -2.404540
 H         1.929174        -0.721731        -3.305657
