19
Iteration:  3458
 C        -0.042000         0.046609         0.111258
 C         1.467305        -0.087913         0.014235
 O         1.907795         1.341162         0.257977
 C         2.109982        -0.993438         1.083250
 C         3.021815        -1.896195         0.491516
 C         3.181565        -1.668671        -1.004036
 C         3.709894        -0.344297        -1.420422
 C         2.180038        -0.611585        -1.338485
 O         1.466894        -0.721792        -2.570565
 H        -0.199710         1.266521         0.066467
 H        -0.804506        -0.361146        -0.481777
 H        -0.246032        -0.218003         1.216682
 H         2.742299         1.157524         0.851793
 H         1.785933        -1.083301         2.136973
 H         3.452478        -2.751842         0.999101
 H         3.171530        -2.640850        -1.640462
 H         4.137555         0.331831        -0.638099
 H         3.910746        -0.302952        -2.548263
 H         1.625054         0.156771        -3.000856
