19
Iteration:  4507
 C         0.058962        -0.214299         0.041078
 C         1.606563         0.007821         0.090928
 O         1.809884         1.389564         0.363626
 C         2.183452        -0.951672         1.092748
 C         2.903258        -1.935925         0.402107
 C         2.950446        -1.730393        -1.019978
 C         3.718530        -0.515845        -1.509278
 C         2.229451        -0.509532        -1.286403
 O         1.485074        -0.377877        -2.510792
 H        -0.129392        -1.180371        -0.522999
 H        -0.357644        -0.397219         1.110796
 H        -0.342622         0.734403        -0.399412
 H         2.830176         1.435510         0.458553
 H         2.272572        -0.769196         2.176426
 H         3.609277        -2.574190         0.882022
 H         2.920103        -2.509839        -1.716661
 H         4.436663        -0.134661        -0.739518
 H         4.080612        -0.479326        -2.561212
 H         1.258307        -1.290381        -2.849451
