19
Iteration:  3107
 C        -0.058660        -0.049213        -0.044524
 C         1.491102        -0.010995         0.093164
 O         1.985762         1.199440         0.503353
 C         2.118256        -0.947355         1.105974
 C         3.168359        -1.677419         0.531429
 C         3.014009        -1.697989        -0.968732
 C         3.682450        -0.535718        -1.644865
 C         2.145840        -0.570084        -1.264754
 O         1.475577        -0.565980        -2.544264
 H        -0.361763         0.670632        -0.932156
 H        -0.396645        -1.008499        -0.314995
 H        -0.663584         0.112165         0.813768
 H         1.636993         1.778146        -0.171387
 H         1.726922        -0.890669         2.142889
 H         3.708955        -2.462237         1.095527
 H         2.950767        -2.720395        -1.529819
 H         4.358806        -0.037340        -0.961431
 H         4.042997        -0.807219        -2.711862
 H         1.997767        -0.098691        -3.236812
