19
Iteration:  1203
 C         0.063251        -0.101186        -0.120048
 C         1.545151        -0.033710        -0.023428
 O         1.966029         1.240460         0.192836
 C         2.130130        -0.970176         1.056513
 C         2.776828        -2.011455         0.549261
 C         3.057729        -1.697824        -0.994500
 C         3.703319        -0.361603        -1.273487
 C         2.218764        -0.540830        -1.291557
 O         1.510271        -0.513588        -2.405753
 H        -0.290817         0.502666        -0.961369
 H        -0.501135        -1.077686        -0.006856
 H        -0.312489         0.597087         0.599746
 H         2.698446         1.447168        -0.333101
 H         1.834070        -0.520615         2.051083
 H         3.347129        -2.827808         1.143368
 H         3.191681        -2.446459        -1.784481
 H         4.169649         0.170557        -0.391412
 H         4.482724        -0.341314        -2.059953
 H         0.933121         0.266555        -2.465749
