19
Iteration:  3416charge 0 multiplicity 1
 C         0.030467        -0.072201        -0.180823
 C         1.563776        -0.069226        -0.015538
 O         2.070451         1.283913         0.409457
 C         2.105043        -0.983929         1.071682
 C         3.025127        -1.829191         0.484528
 C         3.064934        -1.651478        -0.945373
 C         3.697620        -0.402217        -1.505366
 C         2.136584        -0.511846        -1.281641
 O         1.370785        -0.695630        -2.416533
 H        -0.407711         0.533102        -1.007230
 H        -0.206246        -1.079688        -0.444002
 H        -0.538703         0.328265         0.711054
 H         1.921856         1.427371         1.390513
 H         1.840213        -0.881793         2.151912
 H         3.645665        -2.565275         0.932044
 H         2.973539        -2.544404        -1.644125
 H         4.258596         0.313283        -0.867306
 H         3.885643        -0.096814        -2.597463
 H         1.206347         0.192124        -2.821188
