19
Iteration:   745charge 0 multiplicity 1
 C         0.060990        -0.149099        -0.033685
 C         1.571377        -0.057628        -0.002842
 O         1.873738         1.410869         0.122522
 C         2.058384        -0.955723         1.094005
 C         2.774081        -1.940845         0.606847
 C         3.007268        -1.766014        -0.967353
 C         3.808805        -0.520975        -1.281288
 C         2.252813        -0.571655        -1.299807
 O         1.559931        -0.456588        -2.556382
 H        -0.185012         0.681893         0.657629
 H        -0.381747         0.095830        -1.043130
 H        -0.385320        -1.107652         0.401761
 H         2.877728         1.457628         0.320902
 H         1.919888        -0.726144         2.129189
 H         3.451226        -2.580715         1.178795
 H         3.026449        -2.673924        -1.580870
 H         4.201132         0.034376        -0.468442
 H         4.263026        -0.439122        -2.322914
 H         0.982376         0.339513        -2.514123
