19
Iteration:   750charge 0 multiplicity 1
 C         0.105853        -0.160403        -0.011035
 C         1.529488        -0.051804        -0.019445
 O         1.873831         1.465603         0.104530
 C         2.084143        -0.961654         1.064263
 C         2.743153        -2.034947         0.610177
 C         3.023519        -1.753254        -0.881144
 C         3.827392        -0.509008        -1.311821
 C         2.274173        -0.549120        -1.319987
 O         1.537696        -0.448602        -2.555079
 H        -0.155611         0.713425         0.590215
 H        -0.377322        -0.065228        -0.965951
 H        -0.364488        -1.030250         0.318472
 H         2.756594         1.398923         0.354086
 H         1.883623        -0.717134         2.138469
 H         3.366426        -2.768693         1.150174
 H         3.064240        -2.578948        -1.611537
 H         4.175282         0.096896        -0.415101
 H         4.306136        -0.460477        -2.254390
 H         0.822852         0.191725        -2.461028
