19
Iteration:  3487charge 0 multiplicity 1
 C         0.048874        -0.119928         0.067817
 C         1.510689         0.005980         0.038772
 O         2.031481         1.322543         0.229890
 C         2.087977        -1.008346         1.073765
 C         2.910161        -1.894647         0.499120
 C         3.077447        -1.687737        -0.949090
 C         3.682955        -0.342431        -1.355926
 C         2.131286        -0.547839        -1.312172
 O         1.486498        -0.658758        -2.533733
 H        -0.633207         0.720242        -0.020507
 H        -0.293052        -0.833707        -0.731356
 H        -0.299520        -0.422367         1.026413
 H         2.624249         1.393815        -0.607035
 H         1.937876        -0.805224         2.099095
 H         3.570743        -2.653978         1.011109
 H         3.113572        -2.522363        -1.717085
 H         4.199613         0.263968        -0.678530
 H         4.010099        -0.100818        -2.381799
 H         1.205974         0.280163        -2.666738
