19
Iteration:  1736
 C        -0.006604        -0.071593        -0.049601
 C         1.562118         0.029863         0.005002
 O         1.943147         1.351392         0.385277
 C         2.185520        -0.891270         1.076573
 C         2.937324        -1.915053         0.525616
 C         2.969477        -1.835641        -0.991083
 C         3.815286        -0.601661        -1.447681
 C         2.212087        -0.583070        -1.339343
 O         1.431250        -0.475656        -2.546279
 H        -0.489366         0.111705        -1.036937
 H        -0.355176        -0.981861         0.410324
 H        -0.317419         0.812221         0.524757
 H         1.480233         1.545734         1.178709
 H         1.992577        -0.762174         2.100260
 H         3.719136        -2.338987         1.190787
 H         2.920797        -2.756455        -1.591440
 H         4.338523         0.009826        -0.693405
 H         4.051821        -0.737549        -2.542204
 H         1.683474         0.311667        -3.104743
