19
Iteration:  3541charge 0 multiplicity 1
 C         0.123204        -0.233701        -0.076104
 C         1.636687        -0.010775         0.034896
 O         1.810685         1.426588         0.381858
 C         2.218051        -0.874727         1.097782
 C         2.963452        -1.882227         0.518936
 C         2.949468        -1.825140        -0.966518
 C         3.698350        -0.587519        -1.505526
 C         2.252607        -0.509015        -1.316012
 O         1.462676        -0.453447        -2.445207
 H        -0.075421         0.182243        -1.073996
 H        -0.308040        -1.330153        -0.089548
 H        -0.473920         0.259301         0.711550
 H         0.894808         1.745438         0.098308
 H         1.946682        -0.625918         2.119981
 H         3.546837        -2.663823         1.088965
 H         2.852615        -2.773445        -1.611990
 H         4.507088        -0.205111        -0.969848
 H         4.019573        -0.635617        -2.574756
 H         1.732805         0.366627        -2.907613
