19
Iteration:  3957
 C         0.076766        -0.200403        -0.023656
 C         1.595151        -0.077186        -0.009175
 O         2.002306         1.299192         0.171628
 C         2.187247        -0.918960         1.035000
 C         2.991665        -1.921528         0.558150
 C         3.033264        -1.727296        -0.968321
 C         3.664589        -0.437212        -1.380610
 C         2.195960        -0.544734        -1.296283
 O         1.341555        -0.459732        -2.441151
 H        -0.413473         0.819732        -0.042608
 H        -0.320687        -0.722687        -0.817536
 H        -0.401736        -0.652573         0.895620
 H         1.448013         1.729207         0.897346
 H         2.066244        -0.745984         2.123631
 H         3.486277        -2.734996         1.063950
 H         2.965883        -2.552836        -1.627779
 H         3.946921         0.389454        -0.602211
 H         4.083159        -0.452835        -2.403046
 H         1.821316         0.223629        -2.944747
