19
Iteration:   538
 C         0.024832        -0.107379        -0.126100
 C         1.607392         0.064019        -0.055874
 O         1.903410         1.360960         0.419082
 C         2.208073        -0.877679         1.045748
 C         2.796659        -1.967712         0.601835
 C         3.014000        -1.799893        -0.985744
 C         3.777674        -0.457428        -1.341393
 C         2.285238        -0.548370        -1.321237
 O         1.426885        -0.495951        -2.535160
 H        -0.499930         0.162116         0.751141
 H        -0.202582         0.498150        -0.992033
 H         0.038843        -1.189459        -0.485174
 H         2.232444         1.933613        -0.251080
 H         1.830654        -0.644051         2.110243
 H         2.941987        -2.967057         1.102160
 H         3.049671        -2.728917        -1.580794
 H         4.143026         0.119493        -0.445000
 H         4.462597        -0.447599        -2.204086
 H         1.267244        -1.425079        -2.732213
