19
Iteration:   969charge 0 multiplicity 1
 C        -0.029719        -0.105988        -0.219894
 C         1.570264        -0.061455         0.020660
 O         1.898452         1.365155         0.337726
 C         2.090628        -0.922262         1.163668
 C         2.843451        -1.946634         0.622973
 C         3.075295        -1.853810        -0.942609
 C         3.780134        -0.523115        -1.441219
 C         2.325191        -0.517703        -1.352081
 O         1.411481        -0.382338        -2.408305
 H        -0.234210         0.832308        -0.676470
 H        -0.220476        -0.914450        -0.871397
 H        -0.619077        -0.110230         0.745797
 H         2.657751         1.602105        -0.286691
 H         1.906724        -0.582094         2.181213
 H         3.279893        -2.752353         1.268543
 H         3.111994        -2.693716        -1.665081
 H         4.454732        -0.030973        -0.792724
 H         4.154624        -0.772064        -2.461007
 H         1.793788        -0.318894        -3.299510
