19
Iteration:   431charge 0 multiplicity 1
 C         0.036918        -0.187787        -0.087383
 C         1.538089         0.000538         0.042352
 O         1.854151         1.368273         0.183151
 C         2.172744        -0.912451         1.088368
 C         2.828841        -1.897864         0.509800
 C         2.984058        -1.759058        -0.966285
 C         3.768239        -0.501547        -1.321668
 C         2.228324        -0.508559        -1.231325
 O         1.537373        -0.514608        -2.443244
 H        -0.443535        -0.789567         0.676330
 H        -0.298110         0.838810        -0.222184
 H        -0.080623        -0.639051        -1.129240
 H         2.684035         1.613825        -0.224926
 H         1.992285        -0.761870         2.191571
 H         3.113497        -2.804845         1.112374
 H         2.939133        -2.720496        -1.511155
 H         4.481415        -0.177357        -0.560970
 H         4.143512        -0.531175        -2.421383
 H         1.627189         0.324374        -2.932532
