19
Iteration:  2414charge 0 multiplicity 1
 C        -0.017525         0.031227         0.347097
 C         1.488963        -0.060323        -0.017452
 O         1.849053         1.361075         0.150286
 C         2.196994        -0.958228         1.029285
 C         2.948571        -1.956710         0.475736
 C         2.967379        -1.780652        -1.019075
 C         3.754168        -0.477556        -1.298892
 C         2.251834        -0.535555        -1.333816
 O         1.543232        -0.604136        -2.650565
 H        -0.458546         1.084162         0.057588
 H        -0.691147        -0.615008        -0.237419
 H        -0.143263        -0.076083         1.402688
 H         2.764336         1.379727         0.146074
 H         2.202844        -0.677770         2.016467
 H         3.207357        -2.880083         0.918717
 H         3.169796        -2.669270        -1.706766
 H         4.115927         0.093658        -0.504650
 H         4.266707        -0.454996        -2.314781
 H         1.317423         0.358928        -2.763270
