19
Iteration:  3141charge 0 multiplicity 1
 C         0.006020        -0.030185        -0.099764
 C         1.604369        -0.021857        -0.023991
 O         1.975799         1.272191         0.468103
 C         2.126718        -0.970228         0.968167
 C         3.022298        -1.867730         0.574814
 C         3.139881        -1.770761        -0.934352
 C         3.672646        -0.399474        -1.503896
 C         2.199420        -0.581375        -1.358506
 O         1.302683        -0.611356        -2.393493
 H        -0.469186         0.507368        -0.986083
 H        -0.285219        -1.014330        -0.154410
 H        -0.366178         0.448395         0.813877
 H         1.742020         2.097434        -0.059681
 H         1.769601        -0.676535         1.976866
 H         3.592921        -2.626430         1.058465
 H         3.244315        -2.594300        -1.658553
 H         4.109284         0.337077        -0.875966
 H         4.327565        -0.476174        -2.435229
 H         1.736312        -0.079914        -3.112168
