19
Iteration:  2237charge 0 multiplicity 1
 C         0.116953        -0.159952        -0.037807
 C         1.622332        -0.025247        -0.001982
 O         1.801887         1.368955         0.093173
 C         2.225283        -0.886077         1.111789
 C         2.900874        -1.911000         0.555106
 C         2.945834        -1.788452        -0.969977
 C         3.794603        -0.632674        -1.428377
 C         2.280153        -0.519199        -1.259893
 O         1.368780        -0.386125        -2.353849
 H        -0.271628         0.575443        -0.720666
 H        -0.148808        -1.158217        -0.552236
 H        -0.470890        -0.213121         0.909992
 H         2.779836         1.462826         0.129886
 H         2.272752        -0.580994         2.180807
 H         3.211848        -2.929492         0.869309
 H         2.790833        -2.726093        -1.558440
 H         4.508706        -0.325174        -0.652811
 H         3.958261        -0.522691        -2.529191
 H         1.115377         0.577261        -2.314986
