19
Iteration:  2365charge 0 multiplicity 1
 C         0.091915        -0.082399        -0.243658
 C         1.585043        -0.035697         0.036129
 O         2.038627         1.337302         0.359836
 C         2.204846        -0.996674         1.139672
 C         2.967782        -1.905624         0.561163
 C         2.967285        -1.684129        -0.935211
 C         3.608830        -0.433748        -1.548988
 C         2.163801        -0.532234        -1.282496
 O         1.326003        -0.564076        -2.371358
 H        -0.182919         0.731428        -0.893538
 H        -0.076265        -0.994390        -0.824400
 H        -0.709672        -0.042043         0.564206
 H         3.081488         1.301137         0.337727
 H         1.779115        -1.121841         2.206376
 H         3.678164        -2.563441         1.195211
 H         3.006991        -2.584259        -1.569800
 H         4.391264         0.188411        -0.937855
 H         3.958506        -0.699856        -2.526724
 H         1.274248         0.267741        -2.857819
