19
Iteration:  4157charge 0 multiplicity 1
 C         0.057924        -0.486767         0.148213
 C         1.562619         0.021420         0.031179
 O         1.674111         1.479163         0.233826
 C         2.361051        -0.819109         1.035341
 C         2.810393        -1.995738         0.478225
 C         2.790252        -1.819762        -1.026957
 C         3.804157        -0.726098        -1.366047
 C         2.303743        -0.410911        -1.308609
 O         1.568867        -0.208106        -2.530873
 H         0.190971        -1.496579        -0.006805
 H        -0.265084        -0.431370         1.274328
 H        -0.701647        -0.178327        -0.490729
 H         2.561777         1.662745        -0.017594
 H         2.573968        -0.627531         2.057983
 H         3.457410        -2.697505         0.974383
 H         2.693610        -2.579800        -1.745626
 H         4.512074        -0.327761        -0.718885
 H         4.172776        -0.670044        -2.336305
 H         1.736882         0.676779        -2.919716
