19
Iteration:  1065
 C        -0.016180        -0.099300         0.124063
 C         1.572343        -0.111009        -0.056491
 O         1.795381         1.381443         0.106010
 C         2.061788        -0.987427         1.001229
 C         2.888750        -1.951404         0.558012
 C         3.078737        -1.813530        -0.961207
 C         3.767564        -0.547914        -1.218774
 C         2.167482        -0.643014        -1.369979
 O         1.635000        -0.250426        -2.556866
 H        -0.629797         0.310696        -0.681839
 H        -0.087465        -1.202359         0.249799
 H        -0.237435         0.568864         1.011626
 H         2.827435         1.460863         0.051255
 H         1.874624        -0.803356         2.079979
 H         3.491917        -2.615397         1.268405
 H         3.263468        -2.710902        -1.583296
 H         4.413999        -0.160713        -0.466642
 H         4.235944        -0.499145        -2.198896
 H         0.826957         0.211534        -2.236792
