19
Iteration:   385charge 0 multiplicity 1
 C         0.052789        -0.126048        -0.070778
 C         1.556577         0.042390         0.049449
 O         1.764991         1.372443         0.348132
 C         2.099870        -0.856366         1.051205
 C         2.833842        -1.889212         0.510176
 C         3.122538        -1.814214        -0.931356
 C         3.775355        -0.600585        -1.388151
 C         2.308904        -0.509761        -1.347695
 O         1.444565        -0.451914        -2.529824
 H        -0.207804         0.044909         0.935837
 H        -0.284024         0.535072        -0.859472
 H        -0.122430        -1.205828        -0.298694
 H         2.686676         1.337752         0.417173
 H         1.710094        -0.880302         2.015409
 H         3.229539        -2.648557         1.194196
 H         3.089477        -2.782860        -1.484208
 H         4.298884         0.001900        -0.615440
 H         4.280315        -0.667115        -2.363361
 H         2.070700        -0.597789        -3.289451
