19
Iteration:   989
 C         0.166427        -0.173341        -0.216122
 C         1.623958         0.063721        -0.064894
 O         1.846480         1.393354         0.361249
 C         2.089625        -0.939488         1.030800
 C         2.850143        -1.948351         0.530521
 C         2.975624        -1.785539        -0.869451
 C         3.814002        -0.600664        -1.350290
 C         2.210646        -0.542745        -1.262412
 O         1.386727        -0.345195        -2.415417
 H        -0.125213         0.320630        -1.138005
 H         0.070143        -1.303142        -0.235123
 H        -0.224676         0.261648         0.778559
 H         2.462407         1.830333        -0.167178
 H         1.763317        -0.935179         2.055030
 H         3.330820        -2.822400         1.005379
 H         2.901315        -2.608891        -1.606652
 H         4.353968        -0.070428        -0.634955
 H         4.358163        -0.661673        -2.371897
 H         1.717558        -0.842787        -3.167317
