19
Iteration:   642
 C         0.021604        -0.135847        -0.066457
 C         1.586399         0.021731         0.039327
 O         1.967072         1.400813         0.160250
 C         2.121565        -0.931752         1.072391
 C         2.744107        -1.957900         0.523875
 C         3.021178        -1.693919        -0.925287
 C         3.746083        -0.423918        -1.348123
 C         2.232947        -0.536413        -1.238328
 O         1.563624        -0.542400        -2.523239
 H        -0.543181        -0.259385         0.911863
 H        -0.272998         0.790310        -0.616919
 H        -0.135206        -1.011493        -0.697777
 H         2.284803         1.633760         1.028733
 H         1.734175        -0.974716         2.131015
 H         3.024173        -2.924198         1.031937
 H         3.111443        -2.521713        -1.697582
 H         4.216509         0.253786        -0.674440
 H         4.189690        -0.515226        -2.364255
 H         1.333195        -1.489237        -2.721926
