19
Iteration:  1794
 C         0.072390        -0.151114        -0.021004
 C         1.630901        -0.002378         0.018079
 O         2.015067         1.326449         0.241289
 C         2.166734        -0.954435         1.034240
 C         2.885077        -1.922585         0.541831
 C         3.036011        -1.814563        -0.970817
 C         3.705347        -0.496286        -1.315978
 C         2.223276        -0.543981        -1.339142
 O         1.312926        -0.404574        -2.425370
 H        -0.350374         0.696077        -0.560624
 H        -0.308617        -1.018744        -0.566430
 H        -0.385063        -0.215319         1.004569
 H         1.807997         1.928663        -0.556176
 H         2.046809        -0.585226         2.081149
 H         3.044818        -2.821717         1.143887
 H         3.081631        -2.709407        -1.592885
 H         4.299975         0.139274        -0.619848
 H         4.186805        -0.498322        -2.295828
 H         1.806591        -0.231954        -3.233983
