19
Iteration:   727
 C        -0.058426        -0.041230        -0.062956
 C         1.443828        -0.020808        -0.018404
 O         1.877317         1.291994         0.226426
 C         2.142357        -0.902582         1.035157
 C         2.982084        -1.792895         0.541441
 C         2.964965        -1.852601        -0.896929
 C         3.704876        -0.546832        -1.317900
 C         2.219494        -0.598588        -1.261895
 O         1.627051        -0.450466        -2.499577
 H        -0.588817         0.435676         0.760140
 H        -0.475563         0.266427        -1.025485
 H        -0.304870        -1.047345        -0.129860
 H         2.862665         1.287176        -0.056489
 H         1.869130        -0.751225         2.103064
 H         3.468628        -2.679177         1.032871
 H         3.070116        -2.748520        -1.561182
 H         4.396072        -0.285927        -0.501968
 H         4.071260        -0.492559        -2.385369
 H         1.882091         0.427403        -2.867729
