19
Iteration:  3184
 C         0.063126        -0.079015         0.074757
 C         1.572517        -0.002793        -0.012489
 O         2.045921         1.331899         0.130028
 C         2.169294        -1.092238         1.048903
 C         2.886475        -2.016627         0.506501
 C         2.979300        -1.678002        -0.892974
 C         3.700774        -0.260552        -1.343301
 C         2.195920        -0.533968        -1.305160
 O         1.463170        -0.651173        -2.448232
 H        -0.532994         0.676988        -0.641555
 H        -0.250986        -0.993416        -0.307769
 H        -0.374598         0.003061         1.096755
 H         1.373601         2.020864        -0.250643
 H         2.098690        -1.048099         2.151365
 H         3.328408        -2.867001         0.907562
 H         3.073288        -2.388312        -1.701665
 H         4.040843         0.492563        -0.703812
 H         4.334226        -0.164319        -2.255592
 H         1.080660         0.131749        -2.899341
