19
Iteration:  4717charge 0 multiplicity 1
 C         0.083980        -0.297971         0.165432
 C         1.543226         0.015573         0.028539
 O         1.806407         1.392070         0.236670
 C         2.311043        -0.895782         1.051333
 C         2.912622        -2.026177         0.469029
 C         2.791076        -1.913329        -0.983506
 C         3.659598        -0.468458        -1.464112
 C         2.215703        -0.481290        -1.282641
 O         1.644567        -0.184022        -2.505216
 H        -0.062386        -1.429099         0.258822
 H        -0.546271         0.142574         0.954231
 H        -0.465660        -0.044513        -0.854913
 H         2.708529         1.417686         0.007316
 H         2.306917        -0.599282         2.069998
 H         3.502545        -2.780369         1.002374
 H         2.879841        -2.733934        -1.762835
 H         4.480692        -0.051326        -0.876817
 H         3.954397        -0.722181        -2.472651
 H         0.932734        -0.888932        -2.620221
