19
Iteration:  1311
 C         0.141048        -0.203172        -0.270711
 C         1.546600        -0.039036         0.049490
 O         1.892822         1.392239         0.284250
 C         2.154089        -0.912360         1.130100
 C         2.905882        -1.894201         0.630469
 C         2.958704        -1.827201        -0.910350
 C         3.707700        -0.632346        -1.509226
 C         2.234516        -0.473139        -1.339879
 O         1.431420        -0.386399        -2.444480
 H        -0.195645         0.476695        -1.080577
 H        -0.047358        -1.320674        -0.462742
 H        -0.266118        -0.007435         0.691241
 H         2.083889         1.551049         1.166776
 H         2.072178        -0.615486         2.173953
 H         3.500362        -2.549897         1.305264
 H         2.884400        -2.782654        -1.429487
 H         4.235329         0.001337        -0.660852
 H         4.140573        -0.751916        -2.501368
 H         1.730905         0.494791        -2.783237
