19
Iteration:  1760
 C         0.016012        -0.108821        -0.149963
 C         1.575933         0.012759         0.035530
 O         2.010857         1.336718         0.304265
 C         2.084466        -0.989784         1.071694
 C         3.059198        -1.893927         0.565777
 C         3.020860        -1.844251        -0.926061
 C         3.694663        -0.553070        -1.534211
 C         2.233009        -0.548158        -1.227808
 O         1.407545        -0.378916        -2.388806
 H        -0.226819         0.239685        -1.169355
 H        -0.309164        -1.099172        -0.006079
 H        -0.486733         0.670533         0.500875
 H         1.131022         1.852040         0.397634
 H         2.015814        -0.745348         2.132827
 H         3.245393        -2.859905         1.139454
 H         2.940180        -2.726558        -1.599056
 H         4.393270         0.012692        -1.012050
 H         3.650478        -0.748408        -2.664194
 H         1.866210        -0.006935        -3.158680
