19
Iteration:  3810
 C         0.021978        -0.092125         0.087805
 C         1.538514        -0.029743        -0.034937
 O         1.879713         1.349294         0.304399
 C         2.150387        -0.884138         1.002031
 C         2.996307        -1.913637         0.529474
 C         3.088579        -1.837089        -0.940903
 C         3.716310        -0.552590        -1.482839
 C         2.233201        -0.552425        -1.321141
 O         1.463570        -0.477121        -2.503190
 H        -0.516504         0.830669        -0.223084
 H        -0.573557        -0.890143        -0.590825
 H        -0.378929        -0.304074         1.060569
 H         1.114812         1.779850         0.600456
 H         2.136757        -0.519975         2.104212
 H         3.651078        -2.561164         1.081265
 H         3.066553        -2.692511        -1.606992
 H         4.190665        -0.089694        -0.618906
 H         4.150588        -0.544902        -2.414616
 H         1.842100         0.183053        -3.071159
