19
Iteration:   987charge 0 multiplicity 1
 C         0.162398        -0.159862        -0.220548
 C         1.618761         0.056871        -0.047435
 O         1.846529         1.388087         0.363994
 C         2.086554        -0.931789         1.031048
 C         2.847510        -1.958590         0.532179
 C         2.974824        -1.773880        -0.855954
 C         3.827878        -0.612128        -1.372900
 C         2.216288        -0.552607        -1.270966
 O         1.372470        -0.341898        -2.411809
 H        -0.093565         0.372733        -1.176143
 H        -0.003277        -1.317798        -0.304648
 H        -0.233296         0.156294         0.775205
 H         2.517773         1.829189        -0.223967
 H         1.802292        -0.960015         2.062143
 H         3.328126        -2.778005         1.026166
 H         2.968444        -2.646336        -1.523660
 H         4.340599         0.012001        -0.648750
 H         4.393787        -0.599225        -2.370449
 H         1.767303        -0.802972        -3.166383
