19
Iteration:  3049
 C         0.124140        -0.284133         0.072113
 C         1.678329         0.027489        -0.013237
 O         1.959191         1.451168         0.109837
 C         2.277539        -0.921198         1.107016
 C         2.765993        -2.039473         0.447250
 C         2.976851        -1.764902        -1.011306
 C         3.760087        -0.366457        -1.292503
 C         2.257198        -0.500576        -1.306250
 O         1.375733        -0.565919        -2.412600
 H        -0.486491         0.396768        -0.544623
 H        -0.101331        -1.370448        -0.407930
 H        -0.095086         0.088976         1.099611
 H         1.087495         1.880047        -0.182887
 H         1.852169        -0.818240         2.118265
 H         3.033330        -3.025104         0.814206
 H         3.076635        -2.551276        -1.689144
 H         4.069275         0.280025        -0.408375
 H         4.271640        -0.340451        -2.209021
 H         0.978239         0.294355        -2.568196
