19
Iteration:  3248
 C         0.045080        -0.220928        -0.047790
 C         1.555325        -0.023046         0.111111
 O         1.841721         1.388098         0.239076
 C         2.263601        -0.920215         1.093096
 C         3.028981        -1.852405         0.529494
 C         2.924930        -1.796472        -0.958706
 C         3.682682        -0.628402        -1.534025
 C         2.220074        -0.438478        -1.284573
 O         1.502263        -0.449007        -2.443191
 H        -0.092569         0.350538        -1.011198
 H        -0.140809        -1.231616        -0.255485
 H        -0.534873         0.158509         0.771878
 H         1.049120         1.707497         0.724179
 H         2.261147        -0.728860         2.158224
 H         3.579710        -2.499195         1.136934
 H         2.576688        -2.677692        -1.464959
 H         4.298689        -0.150402        -0.838597
 H         3.911728        -0.705338        -2.615704
 H         2.056771         0.122297        -3.023464
