19
Iteration:   419
 C         0.093044        -0.163126        -0.125264
 C         1.601348         0.031276         0.045096
 O         1.792286         1.458924         0.245813
 C         2.135261        -0.943456         1.089598
 C         2.735826        -2.032980         0.556589
 C         2.983984        -1.821201        -0.883016
 C         3.768237        -0.451188        -1.448063
 C         2.316993        -0.487963        -1.261870
 O         1.517572        -0.534870        -2.433340
 H        -0.305800        -0.607427         0.750567
 H        -0.475829         0.738264        -0.146914
 H        -0.216510        -0.866930        -0.983983
 H         2.597931         1.536148        -0.263107
 H         2.056426        -0.840906         2.172468
 H         3.428982        -2.711614         1.091631
 H         2.843258        -2.475024        -1.772295
 H         4.311963         0.123627        -0.706028
 H         4.278215        -0.461483        -2.488420
 H         2.013188         0.015037        -3.103553
