19
Iteration:  4302charge 0 multiplicity 1
 C        -0.019763         0.120617        -0.012275
 C         1.499085        -0.074689        -0.021916
 O         2.020542         1.226944         0.424524
 C         1.995852        -1.126560         0.939529
 C         3.022682        -1.943503         0.385503
 C         3.192314        -1.569950        -0.982686
 C         3.752418        -0.255134        -1.399303
 C         2.198920        -0.517400        -1.276483
 O         1.353067        -0.744604        -2.417650
 H        -0.483342        -0.970481        -0.032574
 H        -0.317810         0.670849         0.814395
 H        -0.576481         0.614811        -0.952275
 H         2.951790         1.307204         0.014406
 H         1.664785        -1.111213         1.990134
 H         3.673430        -2.627464         0.997858
 H         3.211749        -2.451679        -1.706370
 H         4.475208         0.192447        -0.617429
 H         4.052053        -0.246173        -2.489487
 H         0.787301         0.100801        -2.494258
