19
Iteration:  2091charge 0 multiplicity 1
 C         0.032445        -0.059918         0.114820
 C         1.556615         0.003987        -0.016622
 O         1.932667         1.354510         0.214365
 C         2.148484        -0.944728         1.053002
 C         2.980744        -1.859431         0.483548
 C         3.002026        -1.853684        -0.972376
 C         3.675877        -0.469924        -1.343344
 C         2.171230        -0.644740        -1.328033
 O         1.505785        -0.465005        -2.578476
 H        -0.491996         0.726406        -0.522902
 H        -0.435804        -0.984111        -0.170770
 H        -0.263177         0.211180         1.114182
 H         2.879919         1.395756         0.324596
 H         2.148014        -0.787822         2.209490
 H         3.309528        -2.775312         1.082427
 H         3.222148        -2.594596        -1.706998
 H         4.202436        -0.010847        -0.409022
 H         4.122725        -0.484477        -2.321507
 H         0.598433        -0.177087        -2.459741
