19
Iteration:  3827charge 0 multiplicity 1
 C        -0.010576        -0.178035        -0.016799
 C         1.563642        -0.018232        -0.008270
 O         1.834315         1.391276         0.246837
 C         2.278875        -0.931642         1.098128
 C         3.035041        -1.969654         0.599527
 C         3.022305        -1.805532        -0.905586
 C         3.729858        -0.624409        -1.451167
 C         2.248845        -0.523998        -1.319117
 O         1.388222        -0.318555        -2.518674
 H        -0.455893         0.631645        -0.671066
 H        -0.289354        -1.097512        -0.325255
 H        -0.243868        -0.105623         1.086926
 H         0.984481         1.766142         0.406072
 H         2.115402        -0.907599         2.170983
 H         3.495609        -2.750716         1.285966
 H         3.098616        -2.745384        -1.469755
 H         4.566371         0.101777        -1.240944
 H         3.963330        -0.891463        -2.584255
 H         1.903226         0.267608        -3.051799
