19
Iteration:   249charge 0 multiplicity 1
 C         0.050890        -0.060762        -0.069744
 C         1.538707        -0.084055        -0.077695
 O         1.825073         1.314518         0.319151
 C         2.128086        -0.953386         1.019007
 C         2.908720        -1.913974         0.593477
 C         2.976780        -1.772282        -0.900344
 C         3.772890        -0.481864        -1.283710
 C         2.263143        -0.576067        -1.337164
 O         1.507723        -0.477519        -2.585126
 H        -0.252702         0.758774         0.602470
 H        -0.405758         0.209672        -1.012418
 H        -0.386930        -0.961161         0.431931
 H         2.729195         1.574663         0.062736
 H         2.022104        -0.627349         2.029807
 H         3.399888        -2.645262         1.242483
 H         3.028020        -2.667425        -1.561021
 H         4.201095         0.018174        -0.451070
 H         4.176000        -0.582903        -2.310530
 H         1.602918         0.441585        -2.890332
