19
Iteration:  3507charge 0 multiplicity 1
 C        -0.044649        -0.223540        -0.037022
 C         1.600872        -0.046568         0.005789
 O         1.988751         1.371869         0.291760
 C         2.236984        -0.885757         1.056248
 C         2.926954        -1.906220         0.530674
 C         3.021423        -1.758425        -0.962197
 C         3.745216        -0.415073        -1.367871
 C         2.242867        -0.504827        -1.347739
 O         1.370056        -0.556224        -2.442329
 H        -0.419883         0.624492        -0.540118
 H        -0.337959        -1.125991        -0.789657
 H        -0.557605        -0.193398         0.934514
 H         2.087462         1.842900        -0.520018
 H         1.853878        -0.799663         2.048779
 H         3.324513        -2.849253         1.026300
 H         3.181165        -2.644621        -1.607695
 H         4.197083         0.035214        -0.502177
 H         4.277489        -0.563797        -2.314598
 H         1.016993         0.316662        -2.637346
