19
Iteration:  4617
 C         0.057038         0.102939        -0.056623
 C         1.505620        -0.110523        -0.038862
 O         2.047760         1.247667         0.543839
 C         2.119933        -1.026903         1.044711
 C         2.993842        -1.890750         0.500769
 C         3.136921        -1.675158        -0.989530
 C         3.635536        -0.234654        -1.561301
 C         2.174401        -0.532808        -1.347360
 O         1.365550        -0.741601        -2.551260
 H        -0.482079        -0.925083         0.037936
 H        -0.322192         0.571450         0.809340
 H        -0.444532         0.740234        -0.910992
 H         2.849853         0.858579         1.037078
 H         1.783290        -1.061554         2.108260
 H         3.499580        -2.697848         1.078805
 H         3.014063        -2.387256        -1.757932
 H         4.004087         0.383318        -0.706171
 H         4.278255        -0.421068        -2.465764
 H         0.845247         0.056449        -2.519262
