19
Iteration:   867
 C         0.004547        -0.077844        -0.175269
 C         1.610641         0.005782         0.034708
 O         1.907626         1.477068         0.227620
 C         2.047452        -1.024730         1.098413
 C         2.881604        -1.924378         0.614403
 C         3.016361        -1.743063        -0.857962
 C         3.812303        -0.565350        -1.427251
 C         2.287018        -0.507325        -1.254102
 O         1.479501        -0.520272        -2.535462
 H        -0.563310        -0.320759         0.745153
 H        -0.197227         0.999023        -0.501422
 H        -0.194278        -0.615308        -1.048350
 H         2.841051         1.462829         0.049432
 H         1.588383        -0.964849         2.095089
 H         3.273943        -2.700092         1.250389
 H         2.962092        -2.569988        -1.553803
 H         4.407283         0.000665        -0.621546
 H         4.247298        -0.797144        -2.350772
 H         0.639413        -0.942495        -2.317418
