19
Iteration:  2847
 C        -0.081867        -0.065602         0.006580
 C         1.531695         0.002756         0.031239
 O         1.899697         1.370878         0.324714
 C         2.135796        -0.995327         1.029971
 C         3.014449        -1.873038         0.552808
 C         3.142653        -1.777684        -0.958390
 C         3.759183        -0.510219        -1.486148
 C         2.183822        -0.720869        -1.387751
 O         1.364262        -0.437423        -2.468565
 H        -0.291025         0.283888        -1.069324
 H        -0.360892        -1.072360         0.167557
 H        -0.495050         0.549695         0.792023
 H         2.846900         1.324858         0.719070
 H         2.004000        -0.790484         2.105975
 H         3.677448        -2.477094         1.171555
 H         3.240410        -2.676411        -1.519167
 H         4.356007         0.164861        -0.898219
 H         4.096303        -0.600802        -2.566621
 H         1.578139         0.444479        -2.844149
