19
Iteration:  1236charge 0 multiplicity 1
 C         0.015364        -0.148744         0.076874
 C         1.583612         0.067484         0.038120
 O         1.926565         1.478774         0.201936
 C         2.047515        -0.997856         1.076094
 C         2.772678        -2.008327         0.500959
 C         3.115891        -1.749103        -0.980814
 C         3.758070        -0.494809        -1.270152
 C         2.189241        -0.554211        -1.342784
 O         1.561727        -0.537766        -2.569742
 H        -0.380886         0.494821        -0.702237
 H        -0.140544        -1.191330        -0.268463
 H        -0.204357         0.102450         1.065912
 H         2.586740         1.637173        -0.575160
 H         1.680133        -1.037418         2.121438
 H         3.138694        -2.925509         1.054486
 H         3.321066        -2.546539        -1.696264
 H         4.098634         0.097423        -0.342018
 H         4.449378        -0.463239        -2.083230
 H         0.965735         0.214464        -2.654684
