19
Iteration:  2124charge 0 multiplicity 1
 C         0.052719        -0.136675         0.069769
 C         1.600378        -0.053724        -0.021019
 O         1.941207         1.326816        -0.004058
 C         2.114998        -1.040107         1.071040
 C         2.889132        -1.955938         0.534995
 C         3.044467        -1.762612        -0.916718
 C         3.743207        -0.409075        -1.363319
 C         2.234562        -0.567574        -1.282503
 O         1.376191        -0.388747        -2.407128
 H        -0.348745         0.574899        -0.706580
 H        -0.382741        -1.093852        -0.079022
 H        -0.221105         0.212788         1.056465
 H         2.948358         1.294809        -0.277351
 H         1.999296        -0.828502         2.222723
 H         3.033654        -2.860907         1.199006
 H         3.274574        -2.464295        -1.680822
 H         4.438573         0.097678        -0.563980
 H         4.168485        -0.506616        -2.341232
 H         0.968308         0.481251        -2.148726
