19
Iteration:  1959charge 0 multiplicity 1
 C         0.061586         0.033444         0.256237
 C         1.549433        -0.049667        -0.026824
 O         1.848739         1.334628         0.165531
 C         2.162360        -0.986521         0.992442
 C         2.864263        -1.993742         0.516784
 C         3.014607        -1.746880        -0.979384
 C         3.788669        -0.523976        -1.275966
 C         2.191454        -0.535042        -1.332160
 O         1.431096        -0.481017        -2.585202
 H        -0.526651         0.768340        -0.269389
 H        -0.508345        -0.971245         0.159720
 H         0.104102         0.117415         1.301414
 H         2.699913         1.502666        -0.144358
 H         1.816129        -0.916373         1.973784
 H         3.763476        -2.385244         1.004557
 H         2.950212        -2.569708        -1.747075
 H         4.304035         0.127744        -0.598788
 H         4.327110        -0.564885        -2.311718
 H         2.106081        -0.330332        -3.254657
