19
Iteration:  4208charge 0 multiplicity 1
 C         0.001020        -0.290606        -0.035331
 C         1.591233        -0.054104         0.112443
 O         1.743589         1.439104         0.164724
 C         2.299556        -0.950069         1.058400
 C         2.898437        -1.992143         0.479775
 C         3.019178        -1.822768        -1.012298
 C         3.721535        -0.640632        -1.483662
 C         2.242115        -0.472408        -1.207303
 O         1.491799        -0.222488        -2.374744
 H        -0.388883        -1.284419         0.378048
 H        -0.498415         0.593229         0.385620
 H        -0.194332        -0.475835        -1.134696
 H         2.600502         1.604088         0.561176
 H         2.281996        -0.657908         2.059031
 H         3.532736        -2.751056         0.950150
 H         2.862053        -2.702767        -1.595603
 H         4.620946        -0.202463        -0.953321
 H         4.043644        -0.764340        -2.549550
 H         1.204721         0.666603        -2.466038
