19
Iteration:   933charge 0 multiplicity 1
 C         0.002378         0.024658         0.013576
 C         1.484439        -0.053800        -0.006428
 O         1.947629         1.347505         0.218269
 C         2.009671        -1.036240         1.081661
 C         2.959539        -1.794717         0.594104
 C         2.996829        -1.850651        -0.936948
 C         3.686003        -0.493165        -1.313229
 C         2.188846        -0.589481        -1.302046
 O         1.607898        -0.553134        -2.625839
 H        -0.279554         1.125767         0.196244
 H        -0.420929        -0.156175        -1.074664
 H        -0.493199        -0.709662         0.682614
 H         2.967186         1.422296         0.320814
 H         1.760831        -0.913790         2.135285
 H         3.679665        -2.423677         1.054849
 H         3.106071        -2.663693        -1.646178
 H         4.283619        -0.052995        -0.472154
 H         4.276969        -0.424654        -2.252643
 H         1.409677         0.408213        -2.779194
