19
Iteration:  3056
 C         0.139797        -0.238567         0.031672
 C         1.636348        -0.004425        -0.041304
 O         1.941061         1.409155         0.166213
 C         2.329223        -0.925537         1.108310
 C         2.786691        -1.957832         0.444200
 C         2.956816        -1.774981        -0.961254
 C         3.774302        -0.351622        -1.309096
 C         2.294355        -0.508119        -1.354400
 O         1.343852        -0.563941        -2.410499
 H        -0.335758         0.518146        -0.579142
 H        -0.287196        -1.181443        -0.248750
 H        -0.293487        -0.162946         1.076629
 H         1.227912         1.904838        -0.188001
 H         1.852455        -1.034630         2.105280
 H         2.980501        -2.937655         0.876317
 H         3.083086        -2.658466        -1.591927
 H         3.976603         0.179637        -0.439568
 H         4.451058        -0.447366        -2.230679
 H         0.902292         0.239408        -2.674143
