19
Iteration:  3638
 C         0.101202        -0.218661         0.000592
 C         1.597482        -0.027263        -0.000844
 O         1.823475         1.392166         0.063968
 C         2.176371        -0.976696         1.088198
 C         2.859474        -1.955397         0.497945
 C         3.014386        -1.726373        -0.942511
 C         3.767973        -0.436249        -1.362285
 C         2.224054        -0.564591        -1.238279
 O         1.488475        -0.436148        -2.382069
 H        -0.456489         0.535195        -0.368504
 H        -0.340371        -1.139488        -0.460001
 H        -0.213949        -0.384492         0.972751
 H         2.679389         1.631067        -0.482689
 H         1.833081        -0.818911         2.113869
 H         3.165991        -2.881476         0.976190
 H         2.900319        -2.441535        -1.790521
 H         4.547466        -0.200475        -0.664006
 H         4.158610        -0.276527        -2.358317
 H         0.958494         0.354981        -2.146871
