19
Iteration:  1925
 C         0.001211        -0.110775         0.018500
 C         1.593768         0.029520         0.072092
 O         1.922579         1.455093         0.339754
 C         2.215700        -0.882978         1.062563
 C         2.818154        -1.988227         0.460480
 C         3.003181        -1.826375        -0.968777
 C         3.683198        -0.536168        -1.498978
 C         2.220724        -0.569732        -1.278982
 O         1.537487        -0.552364        -2.498244
 H        -0.435942         0.424065        -0.786043
 H        -0.133966        -1.223067        -0.000923
 H        -0.411578         0.411350         0.874063
 H         2.698192         1.663857        -0.144350
 H         1.852352        -0.932268         2.121853
 H         3.397318        -2.651998         1.114255
 H         2.893336        -2.584316        -1.765870
 H         4.303789         0.109975        -0.798395
 H         3.914581        -0.572346        -2.539778
 H         1.246236         0.334762        -2.720216
