19
Iteration:  3391charge 0 multiplicity 1
 C         0.036431        -0.249173        -0.113206
 C         1.549056        -0.048059         0.044792
 O         2.149268         1.352445         0.302204
 C         2.089120        -1.041145         1.107856
 C         2.918131        -1.896151         0.524746
 C         3.094307        -1.708807        -0.933616
 C         3.678394        -0.318762        -1.521844
 C         2.166549        -0.489792        -1.296126
 O         1.351934        -0.573117        -2.411926
 H        -0.270085         0.217325        -1.198182
 H        -0.280423        -1.259729        -0.111607
 H        -0.536501         0.447182         0.540507
 H         1.719358         1.877991         0.956663
 H         1.859738        -0.943484         2.132802
 H         3.540254        -2.713315         1.012090
 H         3.138781        -2.472342        -1.747435
 H         4.232902         0.424401        -0.969672
 H         4.085521        -0.510687        -2.540356
 H         1.228862         0.288448        -2.847356
