19
Iteration:  4870charge 0 multiplicity 1
 C        -0.020788        -0.062488         0.040564
 C         1.535251         0.040420         0.066939
 O         2.005705         1.408770         0.408423
 C         2.130878        -1.087960         0.939123
 C         2.953589        -1.998062         0.488824
 C         3.104600        -1.629695        -1.002715
 C         3.710842        -0.347635        -1.553775
 C         2.141250        -0.543034        -1.257119
 O         1.385129        -0.670347        -2.460748
 H        -0.327497        -0.389151        -0.918055
 H        -0.275584        -0.863680         0.730349
 H        -0.605315         0.816447         0.323440
 H         2.890504         1.264611         0.544733
 H         1.570280        -0.931343         1.931319
 H         3.563780        -2.759921         0.982306
 H         2.968841        -2.361793        -1.754958
 H         4.235827         0.221644        -0.807746
 H         4.168249        -0.184745        -2.516234
 H         1.999578        -0.277853        -3.117232
