19
Iteration:  1053
 C         0.074729        -0.118747         0.166333
 C         1.502482         0.004375        -0.098698
 O         1.770130         1.377799         0.131219
 C         2.076939        -1.013761         0.990525
 C         2.926205        -1.964669         0.526712
 C         2.995176        -1.896074        -0.914041
 C         3.737423        -0.516784        -1.268279
 C         2.221354        -0.676740        -1.299093
 O         1.719588        -0.235702        -2.594676
 H        -0.572107         0.033558        -0.710115
 H        -0.434522        -0.992051         0.684592
 H        -0.138169         0.634340         0.958409
 H         2.687498         1.576633         0.159250
 H         1.728545        -0.877925         2.007370
 H         3.659894        -2.609005         1.061802
 H         2.886751        -2.779243        -1.549559
 H         3.970172         0.070950        -0.444373
 H         4.309012        -0.355495        -2.226049
 H         0.775956         0.025690        -2.564751
