19
Iteration:  1137
 C        -0.015501        -0.116350        -0.100191
 C         1.585945         0.023081        -0.049056
 O         1.799593         1.374157         0.468062
 C         2.133988        -0.847877         1.053374
 C         2.877174        -1.900699         0.626934
 C         2.983333        -1.754823        -0.960608
 C         3.843833        -0.570709        -1.501012
 C         2.271235        -0.552617        -1.339031
 O         1.445946        -0.533173        -2.539182
 H        -0.389387         0.844716        -0.477257
 H        -0.223640        -0.936452        -0.852141
 H        -0.332335        -0.215472         0.894506
 H         2.621661         1.201853         1.090409
 H         1.812776        -0.501462         2.050054
 H         3.379490        -2.755787         1.104614
 H         3.141675        -2.551189        -1.695133
 H         4.546127        -0.180739        -0.768200
 H         4.409482        -0.700499        -2.523574
 H         2.046971        -0.207921        -3.229133
