19
Iteration:  2790charge 0 multiplicity 1
 C         0.027292        -0.176622         0.003190
 C         1.642044         0.099189         0.052772
 O         1.755539         1.538606         0.378030
 C         2.303829        -0.917807         1.041893
 C         2.868375        -2.006433         0.538820
 C         2.998809        -1.868485        -0.997670
 C         3.694068        -0.596703        -1.470652
 C         2.240012        -0.486754        -1.357473
 O         1.495022        -0.534354        -2.515549
 H        -0.621197         0.622913        -0.246799
 H        -0.271346        -1.045640        -0.689003
 H        -0.213383        -0.353397         1.016535
 H         2.696742         1.717173         0.245679
 H         2.325464        -0.863256         2.153916
 H         3.347371        -2.875004         1.054364
 H         2.863439        -2.704302        -1.675214
 H         4.367724        -0.133921        -0.700404
 H         3.984111        -0.493042        -2.541043
 H         1.329039         0.317773        -2.928802
