19
Iteration:  1850charge 0 multiplicity 1
 C         0.001837        -0.070159         0.152721
 C         1.543980        -0.011535         0.053236
 O         1.821315         1.412390         0.175799
 C         2.231085        -0.968410         1.085017
 C         2.899810        -1.959063         0.539690
 C         3.005326        -1.792654        -0.941572
 C         3.687531        -0.555016        -1.476042
 C         2.179887        -0.524336        -1.343191
 O         1.556914        -0.453981        -2.534984
 H        -0.333613         0.959283         0.110263
 H        -0.504729        -0.849738        -0.546704
 H        -0.256409        -0.316330         1.208425
 H         2.823087         1.370148         0.311179
 H         1.720454        -0.954089         2.077930
 H         3.581774        -2.676750         0.927156
 H         2.774188        -2.690092        -1.520186
 H         4.460180        -0.061165        -0.751066
 H         4.072386        -0.644911        -2.437336
 H         2.124934        -0.082635        -3.257868
