19
Iteration:  4013
 C        -0.038840         0.090211         0.058769
 C         1.516135        -0.032480        -0.053587
 O         1.966766         1.265918         0.422617
 C         2.016417        -1.076639         0.974163
 C         3.041956        -1.850323         0.486230
 C         3.092897        -1.624225        -0.963039
 C         3.690417        -0.333692        -1.504337
 C         2.244841        -0.501703        -1.355537
 O         1.440934        -0.841591        -2.480745
 H        -0.289711         1.130306        -0.378293
 H        -0.600419        -0.551087        -0.535728
 H        -0.278188         0.023214         1.149771
 H         2.728452         1.136508         0.917770
 H         1.638569        -1.038873         1.994583
 H         3.674759        -2.362218         1.206397
 H         3.259784        -2.467546        -1.661628
 H         4.434605         0.260975        -0.826380
 H         4.053086        -0.175006        -2.576636
 H         1.202304        -0.006376        -2.856327
