19
Iteration:  1368
 C         0.060727        -0.001648         0.132337
 C         1.622942        -0.021043        -0.007663
 O         1.926667         1.349515         0.137812
 C         2.138615        -0.979594         1.034951
 C         2.802771        -2.004611         0.516774
 C         2.987864        -1.818151        -1.005218
 C         3.773446        -0.427326        -1.180371
 C         2.215141        -0.566382        -1.361788
 O         1.521012        -0.539054        -2.610113
 H        -0.507032         0.791171        -0.385741
 H        -0.293123        -1.002367        -0.073602
 H        -0.180198         0.209498         1.213660
 H         1.075519         1.723102         0.602110
 H         1.901105        -0.969133         2.083134
 H         3.485377        -2.609211         1.043935
 H         3.371876        -2.536838        -1.755183
 H         4.277370         0.021329        -0.366511
 H         4.205954        -0.366011        -2.256289
 H         1.402770         0.396855        -2.893170
