19
Iteration:  4782charge 0 multiplicity 1
 C         0.075077        -0.305546         0.035920
 C         1.568936        -0.071685         0.084638
 O         1.773754         1.366703         0.257994
 C         2.296864        -0.903557         1.114046
 C         2.909044        -1.992224         0.549237
 C         2.931938        -1.831955        -1.022384
 C         3.730281        -0.581287        -1.496076
 C         2.266876        -0.426747        -1.259905
 O         1.513540        -0.230473        -2.551519
 H        -0.050908        -1.390341        -0.089568
 H        -0.348711        -0.045560         0.981480
 H        -0.403641         0.323019        -0.775566
 H         2.652962         1.537899        -0.014711
 H         2.170069        -0.558984         2.096800
 H         3.339262        -2.809048         1.058985
 H         2.708906        -2.737765        -1.619517
 H         4.547962        -0.182504        -0.890737
 H         3.781057        -0.498773        -2.588108
 H         0.773255         0.355663        -2.312300
