19
Iteration:  4585
 C        -0.051433         0.120837        -0.047953
 C         1.481802        -0.109539         0.045806
 O         2.114728         1.279913         0.376768
 C         2.015334        -1.216399         1.020250
 C         3.094686        -1.847039         0.473799
 C         3.152723        -1.679041        -1.024589
 C         3.635324        -0.274572        -1.518907
 C         2.189183        -0.556326        -1.290089
 O         1.299107        -0.621854        -2.411930
 H        -0.466100        -0.959930        -0.068697
 H        -0.315819         0.673775         0.818554
 H        -0.429472         0.541876        -1.077589
 H         2.588854         1.017344         1.148585
 H         1.719981        -1.223742         2.109806
 H         3.789103        -2.404551         1.114047
 H         3.163351        -2.515750        -1.683679
 H         4.155298         0.396994        -0.808773
 H         4.201830        -0.213245        -2.488661
 H         1.869402        -0.293801        -3.181150
