19
Iteration:  4388
 C         0.051836        -0.191668         0.118455
 C         1.541076        -0.027109        -0.001950
 O         1.839841         1.353054         0.311488
 C         2.209421        -0.906520         1.003064
 C         2.925933        -1.964985         0.396072
 C         3.027166        -1.732670        -1.061789
 C         3.777693        -0.548907        -1.401950
 C         2.205555        -0.473824        -1.284471
 O         1.407593        -0.455767        -2.493064
 H        -0.249577        -1.224971        -0.102028
 H        -0.110355        -0.116919         1.176464
 H        -0.375379         0.651187        -0.420836
 H         2.204201         1.383523         1.140343
 H         2.007213        -0.865266         2.069939
 H         3.441334        -2.690494         1.063233
 H         3.063055        -2.548856        -1.820684
 H         4.306739         0.202781        -0.736731
 H         4.256097        -0.451652        -2.388519
 H         1.740279         0.261701        -3.074865
