19
Iteration:  1245
 C         0.076975        -0.101748         0.059776
 C         1.553654        -0.019280         0.009097
 O         1.853148         1.464398         0.221744
 C         2.097993        -1.001334         1.006155
 C         2.826595        -1.974835         0.536768
 C         3.011970        -1.722332        -0.902065
 C         3.805866        -0.508870        -1.357502
 C         2.115523        -0.535536        -1.274155
 O         1.644545        -0.530021        -2.574653
 H        -0.465728         0.685144        -0.498434
 H        -0.314666        -1.155234        -0.145100
 H        -0.270802        -0.042857         1.059954
 H         2.694576         1.526362        -0.393054
 H         1.739866        -1.080920         2.083951
 H         3.043653        -2.928045         1.139621
 H         3.108198        -2.501578        -1.661455
 H         4.262816        -0.004348        -0.433196
 H         4.299336        -0.536547        -2.359629
 H         1.194151         0.267818        -2.868360
