19
Iteration:  1052charge 0 multiplicity 1
 C         0.073930        -0.120239         0.171280
 C         1.498142         0.003814        -0.094459
 O         1.771852         1.375965         0.132776
 C         2.076865        -1.007007         0.996779
 C         2.933096        -1.970357         0.521813
 C         2.987169        -1.901107        -0.913469
 C         3.731967        -0.518383        -1.274062
 C         2.228042        -0.659447        -1.292569
 O         1.726461        -0.238527        -2.599245
 H        -0.579855         0.016457        -0.716920
 H        -0.456984        -0.992949         0.685111
 H        -0.127456         0.646278         0.917539
 H         2.661935         1.585971         0.158279
 H         1.742103        -0.879479         2.002041
 H         3.627152        -2.615182         1.057050
 H         2.907733        -2.781651        -1.549323
 H         3.939038         0.059700        -0.433130
 H         4.300647        -0.343250        -2.255757
 H         0.783040        -0.009784        -2.581775
