19
Iteration:  1060charge 0 multiplicity 1
 C         0.022372        -0.095889         0.149052
 C         1.562486        -0.056560        -0.086454
 O         1.778365         1.390644         0.118032
 C         2.071425        -1.023044         0.980092
 C         2.895230        -1.946920         0.567208
 C         3.051888        -1.844099        -0.942960
 C         3.751795        -0.532900        -1.229605
 C         2.170199        -0.702757        -1.360243
 O         1.672013        -0.235133        -2.566361
 H        -0.609979         0.244928        -0.708257
 H        -0.112653        -1.149296         0.512253
 H        -0.194861         0.548373         0.962491
 H         2.705366         1.461089         0.115409
 H         1.786725        -0.859898         1.996472
 H         3.584245        -2.515710         1.107458
 H         2.986367        -2.737005        -1.561902
 H         4.310371         0.042976        -0.422534
 H         4.335207        -0.441253        -2.190582
 H         0.812924         0.155894        -2.360153
