19
Iteration:  1225
 C         0.045855        -0.126879         0.034150
 C         1.568055         0.017257        -0.008469
 O         1.975735         1.418954         0.185053
 C         2.082574        -1.001213         1.055234
 C         2.728432        -1.992775         0.461875
 C         3.056723        -1.818732        -0.940583
 C         3.772621        -0.349346        -1.182192
 C         2.348384        -0.558366        -1.338045
 O         1.465959        -0.548128        -2.567147
 H        -0.579836         0.422415        -0.669968
 H        -0.230747        -1.219708        -0.016301
 H        -0.514369         0.116477         0.880756
 H         2.564393         1.763061        -0.571990
 H         1.776183        -0.830325         2.115514
 H         3.141323        -2.917352         0.988130
 H         3.217221        -2.670225        -1.601915
 H         4.249751         0.172701        -0.271303
 H         4.274236        -0.242129        -2.140901
 H         0.922909         0.239904        -2.370893
