19
Iteration:  1310
 C         0.137770        -0.197205        -0.270023
 C         1.553197        -0.034075         0.044516
 O         1.886943         1.393668         0.286800
 C         2.161716        -0.919886         1.128908
 C         2.915255        -1.889580         0.632123
 C         2.958480        -1.833126        -0.913583
 C         3.691200        -0.642032        -1.500866
 C         2.242354        -0.474427        -1.343054
 O         1.430269        -0.381445        -2.449828
 H        -0.230354         0.467218        -1.088902
 H        -0.060893        -1.320079        -0.491730
 H        -0.252871         0.006048         0.701788
 H         2.089732         1.546497         1.185176
 H         2.040141        -0.621845         2.197853
 H         3.523455        -2.531854         1.350013
 H         2.904800        -2.790248        -1.428429
 H         4.228743        -0.014524        -0.658355
 H         4.149709        -0.733221        -2.479240
 H         1.721419         0.492277        -2.802484
