19
Iteration:  3836
 C         0.071752        -0.263973        -0.046883
 C         1.603796        -0.058296         0.052515
 O         1.837848         1.408151         0.213460
 C         2.285696        -0.912654         1.158002
 C         2.969172        -1.912756         0.592061
 C         2.999793        -1.825471        -0.903885
 C         3.729653        -0.618314        -1.534777
 C         2.246629        -0.526436        -1.277294
 O         1.388973        -0.276752        -2.488608
 H        -0.331372         0.364420        -0.814432
 H        -0.361223        -1.211565        -0.247320
 H        -0.462087         0.108934         0.870343
 H         1.013513         1.840417         0.319704
 H         1.930464        -0.893686         2.137936
 H         3.571964        -2.727048         1.067568
 H         3.007969        -2.677185        -1.596217
 H         4.464868        -0.110541        -0.914083
 H         3.871689        -0.869487        -2.644661
 H         1.905345         0.304415        -3.032072
