19
Iteration:  3893charge 0 multiplicity 1
 C         0.090646        -0.337133         0.165609
 C         1.608466         0.028463         0.068681
 O         1.781484         1.394666         0.197045
 C         2.349752        -0.835515         1.139746
 C         2.865781        -1.949961         0.472384
 C         2.870308        -1.873025        -0.998253
 C         3.778512        -0.617791        -1.362313
 C         2.233082        -0.548207        -1.360112
 O         1.532726        -0.288252        -2.639340
 H        -0.423532        -0.296872        -0.848610
 H         0.069106        -1.302835         0.449135
 H        -0.394275         0.310151         0.942252
 H         0.881000         1.865422         0.220952
 H         2.501952        -0.667484         2.261162
 H         3.104792        -2.798303         1.101762
 H         2.882886        -2.596509        -1.788339
 H         4.360349         0.032901        -0.542956
 H         4.230185        -0.534880        -2.391759
 H         1.321604         0.695596        -2.628476
