19
Iteration:  4439
 C         0.045403        -0.395487         0.061934
 C         1.584036        -0.039290         0.039292
 O         1.822322         1.342373         0.115649
 C         2.319080        -0.946973         1.027914
 C         2.886772        -1.937278         0.438621
 C         2.923405        -1.786849        -1.033205
 C         3.714441        -0.517705        -1.377128
 C         2.199882        -0.477095        -1.221078
 O         1.479823        -0.207146        -2.375007
 H        -0.119591        -1.432840         0.364324
 H        -0.500554         0.303048         0.942029
 H        -0.412025        -0.168944        -0.885945
 H         2.797798         1.498841         0.063691
 H         2.163603        -0.709739         2.096803
 H         3.347843        -2.872342         0.854713
 H         2.905283        -2.734929        -1.673129
 H         4.520608        -0.252714        -0.716515
 H         4.121300        -0.485383        -2.367638
 H         1.373298         0.717682        -2.550193
