19
Iteration:  3313
 C         0.029613        -0.305976         0.236145
 C         1.594564        -0.090916         0.038061
 O         1.873442         1.461075         0.024698
 C         2.239506        -0.856311         1.076160
 C         2.892013        -1.908186         0.457898
 C         2.949212        -1.854849        -0.987526
 C         3.704428        -0.532239        -1.377654
 C         2.146642        -0.521073        -1.274292
 O         1.628893        -0.383609        -2.540667
 H        -0.581736         0.482794        -0.334873
 H        -0.316729        -1.220995        -0.231001
 H        -0.254856        -0.441221         1.252137
 H         1.577611         1.760628         0.851838
 H         2.157325        -0.847449         2.176808
 H         3.359597        -2.679244         1.051163
 H         2.959831        -2.631470        -1.663394
 H         4.253620        -0.115466        -0.550440
 H         3.950147        -0.394797        -2.385532
 H         1.309750         0.495848        -2.735082
