19
Iteration:  1763charge 0 multiplicity 1
 C         0.030336        -0.106698        -0.163151
 C         1.593390         0.022946         0.042186
 O         2.002648         1.328936         0.286483
 C         2.099555        -1.012840         1.091443
 C         3.039258        -1.905166         0.575953
 C         2.996590        -1.825776        -0.940284
 C         3.718546        -0.533852        -1.543268
 C         2.224094        -0.563512        -1.233703
 O         1.396040        -0.373605        -2.378049
 H        -0.290379         0.245414        -1.130375
 H        -0.320493        -1.171985        -0.079658
 H        -0.449035         0.614000         0.522961
 H         1.259344         1.881376         0.294926
 H         1.950204        -0.759086         2.204446
 H         3.283304        -2.773109         1.162372
 H         2.940811        -2.719443        -1.558802
 H         4.443347         0.089439        -0.995048
 H         3.601848        -0.749493        -2.523976
 H         1.903565        -0.033481        -3.155065
