19
Iteration:  4030
 C         0.032640         0.203527         0.063462
 C         1.478473        -0.074440        -0.012110
 O         1.934785         1.269708         0.536734
 C         1.991409        -1.061521         0.932341
 C         2.973142        -1.823707         0.495829
 C         3.245879        -1.674391        -1.018858
 C         3.678048        -0.261637        -1.518165
 C         2.172169        -0.626101        -1.343109
 O         1.467451        -0.849903        -2.527520
 H        -0.453949         0.894379        -0.630341
 H        -0.586614        -0.747583        -0.038184
 H        -0.198689         0.518926         1.123109
 H         2.860868         1.297975         0.411709
 H         1.802559        -1.012934         1.993521
 H         3.593689        -2.555397         0.953687
 H         3.271723        -2.554258        -1.600075
 H         4.034472         0.482843        -0.793678
 H         4.120510        -0.335527        -2.463021
 H         1.370811        -0.092825        -3.076483
