19
Iteration:  4353charge 0 multiplicity 1
 C        -0.008438        -0.060659        -0.096645
 C         1.548264        -0.041411         0.071547
 O         1.974940         1.310549         0.404429
 C         2.179730        -1.070446         1.032407
 C         3.069016        -1.880820         0.522476
 C         3.036511        -1.722020        -0.988009
 C         3.643104        -0.422595        -1.530326
 C         2.141372        -0.463062        -1.290715
 O         1.479183        -0.570206        -2.519208
 H        -0.390049        -0.679485        -0.859600
 H        -0.371669        -0.342165         0.962150
 H        -0.370942         0.912040        -0.207359
 H         2.440628         1.231509         1.190415
 H         1.831778        -0.936268         2.083060
 H         3.749570        -2.591384         1.065892
 H         2.947866        -2.609313        -1.717845
 H         4.120634         0.268944        -0.905637
 H         3.796723        -0.496799        -2.591098
 H         0.786816         0.134671        -2.617520
