19
Iteration:  4698charge 0 multiplicity 1
 C         0.074195        -0.246810         0.065588
 C         1.621853        -0.068030         0.055436
 O         1.896106         1.350776         0.245014
 C         2.241821        -0.913130         1.095869
 C         2.957375        -1.917066         0.492634
 C         2.963542        -1.797488        -1.019694
 C         3.639812        -0.545252        -1.410889
 C         2.116398        -0.614971        -1.289831
 O         1.518301        -0.177265        -2.535137
 H        -0.272134        -1.269291        -0.130123
 H        -0.190256         0.014864         1.179613
 H        -0.492623         0.407359        -0.599216
 H         2.707936         1.613233        -0.252477
 H         2.034248        -0.843218         2.136039
 H         3.371248        -2.701335         1.055003
 H         2.913405        -2.747637        -1.560900
 H         4.109034        -0.158104        -0.566970
 H         3.976671        -0.164440        -2.349456
 H         0.949466        -0.871781        -2.923772
