19
Iteration:  3298
 C         0.124910        -0.359915         0.090833
 C         1.592779         0.034300        -0.015879
 O         1.859902         1.376280         0.088807
 C         2.239750        -0.827101         1.123205
 C         2.847820        -1.931698         0.551123
 C         2.926268        -1.786711        -0.963230
 C         3.776070        -0.566011        -1.385574
 C         2.247597        -0.519958        -1.349888
 O         1.436343        -0.359052        -2.520575
 H        -0.489454         0.307161        -0.425929
 H         0.068152        -1.481059        -0.323132
 H        -0.078123        -0.313489         1.199062
 H         1.594724         1.736250         1.013302
 H         2.038313        -0.594012         2.169280
 H         3.315937        -2.777758         1.055167
 H         2.891717        -2.757819        -1.618147
 H         4.404579        -0.094113        -0.615972
 H         4.213670        -0.621137        -2.444930
 H         1.352494         0.620722        -2.505146
