19
Iteration:   566charge 0 multiplicity 1
 C         0.018454        -0.057645        -0.104448
 C         1.536075        -0.052950        -0.032030
 O         2.017048         1.306216         0.311645
 C         2.014193        -1.030811         1.077040
 C         2.912003        -1.907675         0.575545
 C         3.065727        -1.725711        -0.878396
 C         3.679813        -0.457978        -1.447057
 C         2.209595        -0.575859        -1.247453
 O         1.591704        -0.397596        -2.516510
 H        -0.421522         0.849411         0.405678
 H        -0.130757         0.000635        -1.213152
 H        -0.380382        -1.028637         0.144951
 H         1.437672         1.856050        -0.261684
 H         1.694858        -0.920613         2.093747
 H         3.615759        -2.560551         1.099488
 H         3.099511        -2.746498        -1.321415
 H         4.283096         0.162972        -0.848976
 H         4.128206        -0.649522        -2.443885
 H         0.830252        -0.983622        -2.473247
