19
Iteration:  2652charge 0 multiplicity 1
 C         0.000272        -0.039123        -0.043107
 C         1.588871         0.002274         0.103681
 O         1.889737         1.345926         0.457721
 C         2.219137        -0.912672         1.104853
 C         2.955130        -1.883376         0.532061
 C         2.926123        -1.750930        -0.925751
 C         3.669638        -0.558186        -1.619074
 C         2.144319        -0.489493        -1.315504
 O         1.540033        -0.624533        -2.607618
 H        -0.417521         0.150981        -1.104662
 H        -0.273726        -1.086770         0.232352
 H        -0.318273         0.644493         0.738248
 H         2.722743         1.512951         0.935913
 H         1.904047        -0.902531         2.197244
 H         3.728317        -2.444532         1.122543
 H         2.772950        -2.554093        -1.638889
 H         4.439760         0.071098        -1.067480
 H         3.874726        -0.687154        -2.643743
 H         1.758817         0.136458        -3.198961
