19
Iteration:  4321charge 0 multiplicity 1
 C        -0.022660         0.053920        -0.126044
 C         1.527128        -0.079435         0.045268
 O         2.011634         1.221986         0.440761
 C         2.059947        -1.074710         1.046838
 C         3.029912        -1.910352         0.504066
 C         3.179539        -1.706571        -1.001271
 C         3.689291        -0.262883        -1.491167
 C         2.240697        -0.565805        -1.395839
 O         1.321437        -0.625147        -2.434859
 H        -0.602532        -0.699956        -0.536809
 H        -0.453866         0.184772         0.852753
 H        -0.265709         0.945235        -0.587524
 H         3.058581         1.255286         0.438338
 H         1.790566        -0.959171         2.112773
 H         3.482555        -2.719681         1.113985
 H         3.551268        -2.581979        -1.653191
 H         3.980306         0.573890        -0.922016
 H         4.247703        -0.168836        -2.407407
 H         0.550364        -0.032391        -2.269090
