19
Iteration:  4442charge 0 multiplicity 1
 C         0.038000        -0.387309         0.066326
 C         1.579699        -0.043624         0.027284
 O         1.827813         1.342641         0.136523
 C         2.296598        -0.926786         1.037387
 C         2.913123        -1.952490         0.447849
 C         2.902239        -1.814035        -1.044064
 C         3.735561        -0.511432        -1.396235
 C         2.217930        -0.478290        -1.210968
 O         1.471767        -0.210093        -2.387821
 H        -0.185284        -1.454469         0.328768
 H        -0.414296         0.265012         0.864245
 H        -0.525096        -0.208851        -0.873898
 H         2.712031         1.555282        -0.043361
 H         2.180246        -0.683633         2.031706
 H         3.372641        -2.773020         0.899729
 H         2.891760        -2.658927        -1.677438
 H         4.554268        -0.313618        -0.633493
 H         4.196137        -0.458500        -2.382259
 H         1.335180         0.794307        -2.409308
