19
Iteration:  2158
 C         0.055642        -0.171806        -0.002570
 C         1.599347         0.017579         0.050465
 O         1.800266         1.462809         0.276432
 C         2.245607        -0.912486         0.996085
 C         2.934975        -1.982962         0.550150
 C         2.924889        -1.810722        -0.981754
 C         3.692821        -0.580440        -1.425249
 C         2.209810        -0.520912        -1.262332
 O         1.464678        -0.468332        -2.472623
 H        -0.356794         0.430800        -0.847661
 H        -0.204134        -1.186975        -0.113271
 H        -0.355196         0.278172         0.935698
 H         2.763213         1.661705         0.029993
 H         2.410686        -0.690143         2.067666
 H         3.257882        -2.812353         1.166125
 H         2.855731        -2.628704        -1.720466
 H         4.477658        -0.150245        -0.728084
 H         4.022365        -0.591441        -2.499081
 H         2.034986         0.130542        -3.027796
