19
Iteration:  3154charge 0 multiplicity 1
 C         0.080981        -0.054006        -0.096433
 C         1.544962         0.014063        -0.021951
 O         2.032123         1.336939         0.359286
 C         2.161643        -0.975854         1.026321
 C         2.944299        -1.912894         0.458193
 C         3.165611        -1.708966        -0.972571
 C         3.691105        -0.363814        -1.389338
 C         2.206492        -0.626659        -1.276470
 O         1.289769        -0.646696        -2.377086
 H        -0.193556         0.484990        -0.956452
 H        -0.286227        -1.052251        -0.256622
 H        -0.458274         0.320438         0.818104
 H         1.575509         1.874248        -0.257113
 H         1.876779        -1.133704         2.065254
 H         3.168736        -2.786944         1.033452
 H         3.277775        -2.559552        -1.531124
 H         4.053088         0.346954        -0.591301
 H         3.877810        -0.148796        -2.462871
 H         1.537822        -0.050226        -3.081860
