19
Iteration:   519
 C         0.115186        -0.162681        -0.120173
 C         1.590402         0.043478        -0.049571
 O         1.859840         1.429998         0.343765
 C         2.125009        -0.924698         1.036091
 C         2.766129        -1.930226         0.490582
 C         2.936514        -1.734295        -0.984731
 C         3.787012        -0.558829        -1.274642
 C         2.235779        -0.471956        -1.285398
 O         1.520050        -0.528028        -2.472356
 H        -0.126407        -0.299129         0.936328
 H        -0.421128         0.751134        -0.368055
 H        -0.341920        -0.901415        -0.748708
 H         2.508127         1.514006        -0.310718
 H         2.161985        -0.692182         2.128151
 H         3.433021        -2.596030         1.036012
 H         2.909403        -2.539436        -1.688526
 H         4.449756         0.059221        -0.556430
 H         4.199598        -0.543957        -2.271016
 H         1.585086        -1.494261        -2.624743
