19
Iteration:  3421charge 0 multiplicity 1
 C         0.002547        -0.060878        -0.154380
 C         1.537560        -0.061160        -0.041471
 O         2.052474         1.309530         0.423450
 C         2.107302        -0.997743         1.047458
 C         3.037471        -1.837421         0.498439
 C         3.076261        -1.673018        -0.969105
 C         3.683815        -0.390014        -1.493479
 C         2.160782        -0.531497        -1.281927
 O         1.375260        -0.696572        -2.427713
 H        -0.277465         0.737694        -0.877229
 H        -0.343776        -1.099869        -0.477992
 H        -0.373471         0.316958         0.778438
 H         1.953292         1.373410         1.399933
 H         1.896289        -0.847282         2.101803
 H         3.745203        -2.539719         1.017506
 H         2.996193        -2.495747        -1.620024
 H         4.236256         0.310461        -0.884994
 H         3.973346        -0.260092        -2.494227
 H         1.199902         0.115724        -2.922277
