19
Iteration:  1361
 C         0.065799        -0.074308         0.133337
 C         1.636133         0.035619        -0.028798
 O         1.937691         1.435359         0.155209
 C         2.063985        -1.027280         1.012529
 C         2.825803        -1.996924         0.485397
 C         2.982643        -1.749519        -1.002384
 C         3.790097        -0.469918        -1.229212
 C         2.240482        -0.586504        -1.357857
 O         1.506160        -0.561323        -2.574581
 H        -0.345707         0.640342        -0.585569
 H        -0.195858        -1.098878        -0.106971
 H        -0.307471         0.039726         1.179326
 H         1.219777         1.779772         0.773075
 H         1.944468        -0.801164         2.125066
 H         3.360788        -2.701775         1.207094
 H         3.083626        -2.585494        -1.694472
 H         4.257187        -0.009108        -0.373423
 H         4.227196        -0.424083        -2.181312
 H         1.515422         0.406658        -2.588226
