19
Iteration:  2457
 C         0.053581        -0.208138         0.180361
 C         1.608291         0.017331        -0.009637
 O         1.855166         1.417427         0.150045
 C         2.232982        -0.887145         1.087122
 C         2.854911        -1.971212         0.536520
 C         2.888353        -1.815856        -1.000695
 C         3.697076        -0.549740        -1.378661
 C         2.188569        -0.524239        -1.331587
 O         1.565580        -0.437867        -2.524255
 H        -0.565734         0.212972        -0.654660
 H        -0.107590        -1.268340         0.354813
 H        -0.142889         0.326908         1.080731
 H         2.738203         1.570239        -0.139370
 H         2.287456        -0.643143         2.094174
 H         3.095256        -2.900898         0.992860
 H         2.811527        -2.721287        -1.705552
 H         4.398779        -0.173474        -0.657907
 H         4.176493        -0.483758        -2.386293
 H         1.402006         0.487828        -2.780144
