19
Iteration:  1755
 C         0.003468        -0.074851        -0.127759
 C         1.541921        -0.030714         0.020808
 O         2.004109         1.363310         0.339687
 C         2.107177        -0.959948         1.026305
 C         3.032012        -1.875595         0.562172
 C         3.067274        -1.859271        -0.911319
 C         3.632074        -0.615581        -1.543261
 C         2.243736        -0.518066        -1.243436
 O         1.421302        -0.397916        -2.404659
 H        -0.121145         0.153077        -1.195019
 H        -0.384642        -1.117029         0.177241
 H        -0.525939         0.614117         0.494755
 H         1.193439         1.733255         0.576145
 H         2.055150        -0.749636         2.103299
 H         3.302667        -2.787886         1.028788
 H         2.954031        -2.689959        -1.572728
 H         4.462389        -0.029031        -0.983014
 H         3.941401        -0.626730        -2.643380
 H         1.904058         0.072484        -3.122255
