19
Iteration:  3463charge 0 multiplicity 1
 C        -0.038096         0.030543         0.139677
 C         1.492889        -0.102524         0.006461
 O         1.942860         1.339204         0.237025
 C         2.104410        -1.013471         1.059020
 C         2.999305        -1.889263         0.489936
 C         3.142072        -1.715421        -0.965855
 C         3.660935        -0.296616        -1.434463
 C         2.157778        -0.573879        -1.328477
 O         1.500319        -0.720458        -2.560749
 H        -0.276536         1.004558         0.185309
 H        -0.823002        -0.434720        -0.586138
 H        -0.319343        -0.173679         1.151846
 H         2.805756         1.270945         0.571840
 H         1.787648        -1.093943         2.111116
 H         3.429231        -2.688853         1.118403
 H         3.215711        -2.456658        -1.693504
 H         4.276274         0.309089        -0.731085
 H         4.063707        -0.273723        -2.418023
 H         1.631240         0.162698        -2.916821
