19
Iteration:  4347
 C         0.084661        -0.041205        -0.114459
 C         1.592591        -0.049558         0.045138
 O         1.960680         1.261287         0.410537
 C         2.128088        -1.029542         1.065018
 C         3.068955        -1.925198         0.500264
 C         3.088761        -1.661278        -0.971601
 C         3.573981        -0.409241        -1.513564
 C         2.113938        -0.531595        -1.278230
 O         1.447781        -0.560429        -2.525838
 H        -0.511234        -0.626707        -0.922490
 H        -0.393918        -0.298929         0.813726
 H        -0.367013         1.027719        -0.255584
 H         2.584261         1.354113         1.208926
 H         1.827617        -1.035976         2.104201
 H         3.753981        -2.498065         1.123194
 H         3.020825        -2.503608        -1.604005
 H         4.332395         0.305513        -0.990301
 H         3.857386        -0.420420        -2.594049
 H         0.668357         0.055243        -2.613855
