19
Iteration:   842
 C        -0.033316        -0.025229        -0.175257
 C         1.533324        -0.002249        -0.077065
 O         1.881518         1.267450         0.327738
 C         2.102835        -0.821752         1.076348
 C         2.912544        -1.843272         0.637246
 C         3.004821        -1.862186        -0.876937
 C         3.765863        -0.665793        -1.429636
 C         2.232352        -0.637962        -1.215035
 O         1.567239        -0.340662        -2.504130
 H        -0.478003        -0.250117         0.820156
 H        -0.397052         0.963264        -0.542415
 H        -0.160867        -0.766160        -1.006416
 H         2.681635         1.521814        -0.218948
 H         2.012775        -0.353218         2.062305
 H         3.537344        -2.389766         1.397052
 H         3.125183        -2.773051        -1.498647
 H         4.328915        -0.070730        -0.762959
 H         3.901651        -0.477976        -2.541890
 H         1.160930        -1.119262        -2.936550
