19
Iteration:  3481charge 0 multiplicity 1
 C         0.013587        -0.055787         0.146633
 C         1.525990         0.016135         0.040989
 O         2.004540         1.293535         0.212528
 C         2.044499        -1.009762         1.019425
 C         2.955239        -1.948595         0.508989
 C         3.056278        -1.669257        -0.959692
 C         3.645704        -0.301057        -1.397595
 C         2.171129        -0.562921        -1.316541
 O         1.527250        -0.670827        -2.521426
 H        -0.558324         0.933531        -0.130609
 H        -0.199632        -0.738532        -0.695027
 H        -0.360614        -0.620730         1.085064
 H         2.760632         1.305240        -0.312551
 H         1.895299        -0.752590         2.121266
 H         3.643412        -2.588116         0.987806
 H         3.249577        -2.567845        -1.532909
 H         4.060731         0.334287        -0.522884
 H         3.885683        -0.280813        -2.474918
 H         1.280792         0.188211        -2.872174
