19
Iteration:  4842charge 0 multiplicity 1
 C         0.041976        -0.023532         0.062142
 C         1.593194        -0.135479         0.040550
 O         1.827282         1.313254         0.279273
 C         2.242385        -0.975371         1.095078
 C         2.933889        -1.970476         0.428610
 C         3.068334        -1.701980        -0.972423
 C         3.717054        -0.424699        -1.429992
 C         2.214743        -0.563805        -1.365772
 O         1.378548        -0.483840        -2.440471
 H        -0.547901        -0.392680        -0.821776
 H        -0.321290        -0.666023         0.990562
 H        -0.324217         0.974140         0.277595
 H         2.772887         1.370824         0.364463
 H         1.781698        -0.872410         2.079226
 H         3.324589        -2.975367         0.745777
 H         3.322090        -2.517670        -1.702989
 H         4.084622         0.447435        -0.843959
 H         4.227444        -0.389059        -2.410533
 H         1.755473         0.099364        -3.177052
