19
Iteration:   676charge 0 multiplicity 1
 C         0.044864        -0.154075        -0.181417
 C         1.633133        -0.000515        -0.071515
 O         1.833998         1.426660         0.348923
 C         2.082277        -0.869802         1.008966
 C         2.876396        -1.875550         0.583753
 C         3.063678        -1.754033        -0.891754
 C         3.856811        -0.598512        -1.403502
 C         2.252038        -0.568653        -1.288307
 O         1.408438        -0.456690        -2.424574
 H        -0.472871        -0.526125         0.746416
 H        -0.326552         0.873028        -0.363877
 H        -0.373154        -0.751177        -1.072938
 H         2.837064         1.573113         0.435250
 H         1.498535        -0.880545         1.982955
 H         3.163514        -2.712675         1.247291
 H         2.922109        -2.590463        -1.601660
 H         4.365429         0.037114        -0.654742
 H         4.262890        -0.636113        -2.357867
 H         1.645694        -1.231281        -3.002353
