19
Iteration:  3823
 C        -0.042455        -0.113483         0.020486
 C         1.553271         0.005077        -0.031630
 O         1.838518         1.366809         0.263923
 C         2.272502        -0.982800         1.048428
 C         3.031061        -1.945312         0.602659
 C         3.050502        -1.822713        -0.892785
 C         3.749537        -0.607694        -1.452444
 C         2.216768        -0.521286        -1.349845
 O         1.410620        -0.358648        -2.505597
 H        -0.474311         0.682309        -0.485180
 H        -0.195066        -1.177055        -0.481255
 H        -0.179477        -0.174409         1.101518
 H         0.914078         1.780274         0.479020
 H         2.210729        -0.683152         2.092641
 H         3.439669        -2.699362         1.236979
 H         3.072952        -2.761258        -1.445590
 H         4.450216         0.114215        -1.163082
 H         4.005044        -0.821561        -2.490429
 H         1.910403         0.279482        -3.098714
