19
Iteration:  4798charge 0 multiplicity 1
 C         0.037543        -0.308195         0.024424
 C         1.575651        -0.030304         0.032587
 O         1.883571         1.316850         0.223855
 C         2.254219        -0.925405         1.114953
 C         2.991701        -1.855314         0.441601
 C         2.837051        -1.734005        -0.987229
 C         3.689526        -0.535941        -1.461651
 C         2.153510        -0.565164        -1.270975
 O         1.556395        -0.283513        -2.454245
 H        -0.189790        -1.157739        -0.640898
 H        -0.469753        -0.362230         1.105768
 H        -0.427837         0.537843        -0.481899
 H         2.769101         1.416268         0.001059
 H         2.084489        -1.072495         2.237775
 H         3.596125        -2.660142         0.992018
 H         2.840544        -2.637773        -1.601194
 H         4.356571        -0.182074        -0.638122
 H         4.160653        -0.601325        -2.437961
 H         0.884373         0.455766        -2.360144
