19
Iteration:   712charge 0 multiplicity 1
 C        -0.140700        -0.068913        -0.149554
 C         1.464379        -0.094203         0.004907
 O         1.884361         1.370658         0.302534
 C         2.165315        -0.920507         1.070449
 C         3.003228        -1.902560         0.622254
 C         3.005853        -1.816643        -0.899138
 C         3.729157        -0.602443        -1.392456
 C         2.135896        -0.587349        -1.256793
 O         1.608090        -0.415798        -2.541871
 H        -0.450635         0.257764         0.856362
 H        -0.322148         0.833865        -0.769532
 H        -0.723759        -1.028800        -0.480181
 H         2.793631         1.476784        -0.106558
 H         2.111856        -0.571023         2.072506
 H         3.756569        -2.241275         1.293284
 H         2.869364        -2.697435        -1.497586
 H         4.332792         0.073591        -0.808091
 H         4.103734        -0.545896        -2.445575
 H         2.398064        -0.119528        -3.058826
