19
Iteration:  4384
 C        -0.007281        -0.189409         0.077916
 C         1.543149        -0.009307         0.052931
 O         1.866508         1.337707         0.327115
 C         2.196645        -0.891216         0.998478
 C         2.917787        -1.932091         0.383169
 C         3.051347        -1.728658        -1.094774
 C         3.820871        -0.529811        -1.418181
 C         2.174168        -0.499993        -1.289089
 O         1.420150        -0.486666        -2.488138
 H        -0.298397        -1.181725        -0.204607
 H        -0.125414        -0.157001         1.332777
 H        -0.395374         0.722049        -0.349509
 H         2.271295         1.368269         1.289472
 H         1.983648        -0.822906         2.113159
 H         3.517494        -2.599783         1.072164
 H         3.017137        -2.603388        -1.823347
 H         4.332446         0.047485        -0.709510
 H         4.198404        -0.486220        -2.431252
 H         1.660126         0.271443        -3.030268
