19
Iteration:  4532charge 0 multiplicity 1
 C        -0.001256        -0.171107         0.015701
 C         1.619112         0.000021        -0.036928
 O         1.961110         1.379952         0.340677
 C         2.193130        -0.957959         0.973576
 C         2.969199        -1.980120         0.427133
 C         3.061758        -1.713910        -0.990080
 C         3.729281        -0.426909        -1.387854
 C         2.219228        -0.509834        -1.312622
 O         1.290285        -0.450743        -2.427956
 H        -0.257701        -1.105447        -0.573478
 H        -0.310175        -0.296213         0.979462
 H        -0.387648         0.826097        -0.431159
 H         2.687184         1.226647         0.940318
 H         1.743246        -0.851199         2.034536
 H         3.382691        -2.904719         0.960170
 H         2.992975        -2.541283        -1.718711
 H         4.043086         0.192218        -0.538940
 H         4.289485        -0.179372        -2.331557
 H         1.420658        -1.295558        -2.975681
