19
Iteration:  3663
 C        -0.027237        -0.095717         0.006727
 C         1.498747         0.004589         0.027192
 O         1.899580         1.359865         0.343776
 C         2.124923        -0.968351         1.060477
 C         2.953197        -1.898934         0.472096
 C         3.088850        -1.782361        -0.935200
 C         3.779523        -0.485498        -1.423914
 C         2.249294        -0.527361        -1.372101
 O         1.439089        -0.571303        -2.495572
 H        -0.606470         0.641516        -0.603890
 H        -0.345676        -1.025139        -0.363813
 H        -0.477047        -0.172496         1.026192
 H         2.414203         1.755349        -0.430189
 H         2.044427        -0.813535         2.172911
 H         3.557580        -2.536649         1.067376
 H         3.173919        -2.563795        -1.645365
 H         4.261171         0.151169        -0.617003
 H         4.429178        -0.588388        -2.278873
 H         1.234724         0.381966        -2.702192
