19
Iteration:   854charge 0 multiplicity 1
 C        -0.001420        -0.039393        -0.254910
 C         1.514013        -0.032918        -0.042131
 O         1.910452         1.372778         0.290385
 C         2.094643        -0.914899         1.105854
 C         2.904043        -1.864476         0.635956
 C         3.023331        -1.831644        -0.837584
 C         3.728361        -0.610883        -1.407633
 C         2.264628        -0.527835        -1.347251
 O         1.549642        -0.399265        -2.448277
 H        -0.413657        -0.432418         0.717570
 H        -0.438237         1.008142        -0.373640
 H        -0.567852        -0.731684        -0.884445
 H         2.804588         1.588962        -0.110303
 H         1.939089        -0.755775         2.189242
 H         3.519605        -2.666565         1.107370
 H         2.984583        -2.809382        -1.361375
 H         4.495642        -0.028364        -0.854334
 H         4.085221        -0.838467        -2.431466
 H         1.014233        -1.225009        -2.479578
