19
Iteration:  3303charge 0 multiplicity 1
 C         0.119511        -0.353049         0.139585
 C         1.591707        -0.008681        -0.017759
 O         1.867511         1.412045         0.067737
 C         2.261181        -0.868860         1.133255
 C         2.827744        -1.885912         0.549927
 C         2.917022        -1.777591        -1.018527
 C         3.744322        -0.551440        -1.372157
 C         2.250760        -0.561062        -1.328407
 O         1.483025        -0.363984        -2.539230
 H        -0.636874         0.366013        -0.355866
 H        -0.004537        -1.294734        -0.239901
 H        -0.208451        -0.385020         1.166980
 H         1.587834         1.572404         0.937087
 H         2.024749        -0.650213         2.182042
 H         3.332386        -2.713777         1.070854
 H         2.914158        -2.673645        -1.512627
 H         4.472273        -0.161333        -0.665832
 H         4.142069        -0.527541        -2.336997
 H         1.338392         0.593054        -2.532579
