19
Iteration:  4121charge 0 multiplicity 1
 C         0.074931        -0.211073         0.131313
 C         1.605055        -0.040381         0.029564
 O         1.686614         1.355996         0.227775
 C         2.275128        -0.916705         1.092738
 C         2.929176        -1.974386         0.472452
 C         2.940919        -1.833739        -0.999222
 C         3.750277        -0.567361        -1.408247
 C         2.204999        -0.454720        -1.322514
 O         1.553255        -0.348908        -2.556736
 H        -0.198987        -0.765800        -0.847089
 H        -0.111288        -0.794494         1.010733
 H        -0.501705         0.758782         0.153726
 H         2.514936         1.632872         0.549211
 H         2.009375        -0.734403         2.169056
 H         3.482037        -2.734195         1.118867
 H         2.993930        -2.750625        -1.675324
 H         4.350587         0.057260        -0.651418
 H         3.854412        -0.591970        -2.548791
 H         1.512215         0.600083        -2.757809
