19
Iteration:  4141
 C         0.028828        -0.470987         0.179774
 C         1.604844         0.048493         0.033637
 O         1.677007         1.460480         0.237209
 C         2.342425        -0.815479         1.049874
 C         2.865100        -1.946754         0.407316
 C         2.829205        -1.820886        -1.038783
 C         3.766403        -0.611527        -1.427714
 C         2.175336        -0.512295        -1.275184
 O         1.652353        -0.309066        -2.506363
 H        -0.175047        -1.296238        -0.615880
 H        -0.079042        -0.617842         1.199900
 H        -0.500286         0.490925        -0.207019
 H         2.647216         1.715266         0.343271
 H         2.270242        -0.494633         2.146791
 H         3.214239        -2.855899         0.951502
 H         2.560182        -2.677479        -1.727867
 H         4.453129        -0.448784        -0.526075
 H         4.153335        -0.502980        -2.509340
 H         1.947015         0.636085        -2.683146
