19
Iteration:  1677
 C         0.079462        -0.103512         0.056293
 C         1.609352        -0.017080         0.030263
 O         1.926634         1.406163         0.076573
 C         2.069348        -0.993606         1.055626
 C         2.807945        -2.021107         0.504272
 C         3.084678        -1.787708        -0.943282
 C         3.697958        -0.438776        -1.352236
 C         2.224356        -0.524749        -1.320142
 O         1.453718        -0.479629        -2.433468
 H        -0.358224         0.732923        -0.485973
 H        -0.356556        -1.087690        -0.336364
 H        -0.200854         0.005429         1.122233
 H         2.907304         1.440508         0.163877
 H         1.920843        -0.905656         2.189965
 H         3.118941        -2.962452         1.025454
 H         3.162723        -2.708764        -1.568993
 H         4.212721         0.099767        -0.489318
 H         4.380048        -0.371841        -2.204283
 H         1.359869         0.381401        -2.865647
