19
Iteration:  2755charge 0 multiplicity 1
 C        -0.053766        -0.155125         0.234497
 C         1.523714        -0.054458        -0.035385
 O         1.871087         1.289979         0.030031
 C         2.184891        -0.896711         1.162046
 C         2.947168        -1.879117         0.516944
 C         2.983838        -1.854573        -1.002108
 C         3.712770        -0.577572        -1.374222
 C         2.243920        -0.543980        -1.319300
 O         1.525891        -0.314763        -2.520159
 H        -0.488116         0.773323         0.164976
 H        -0.617285        -0.857290        -0.411862
 H        -0.284574        -0.611060         1.210980
 H         2.854956         1.368246         0.130166
 H         2.122499        -0.651426         2.217121
 H         3.689899        -2.618776         0.915926
 H         2.867911        -2.751837        -1.723261
 H         4.430587        -0.147518        -0.594433
 H         4.100552        -0.380092        -2.329660
 H         1.570685         0.621013        -2.721542
