19
Iteration:   207charge 0 multiplicity 1
 C         0.023887        -0.200440        -0.194411
 C         1.592612        -0.042560        -0.033526
 O         1.991195         1.412168         0.063785
 C         2.085682        -1.026780         1.084916
 C         2.917863        -1.982222         0.645777
 C         2.986768        -1.791031        -0.828364
 C         3.673114        -0.452180        -1.398533
 C         2.221283        -0.502791        -1.209937
 O         1.479917        -0.384241        -2.385155
 H        -0.346709        -0.344240         0.867529
 H        -0.358672         0.798319        -0.545998
 H        -0.173411        -1.054259        -0.808976
 H         2.148453         1.550695         0.967899
 H         1.696833        -0.728047         2.048667
 H         3.338081        -2.876509         1.148708
 H         2.979794        -2.588454        -1.623040
 H         4.366328         0.179999        -0.924529
 H         3.892070        -0.661524        -2.484602
 H         2.020028         0.066435        -3.077177
