19
Iteration:   851
 C        -0.004676        -0.022473        -0.235649
 C         1.504418        -0.020332        -0.072121
 O         1.903231         1.334601         0.303193
 C         2.111820        -0.899962         1.104101
 C         2.894355        -1.845440         0.651366
 C         3.021159        -1.843647        -0.855275
 C         3.738779        -0.633476        -1.408448
 C         2.260842        -0.550937        -1.309226
 O         1.556859        -0.379303        -2.452222
 H        -0.374375        -0.401591         0.724474
 H        -0.465000         0.926441        -0.425640
 H        -0.537122        -0.751094        -0.955405
 H         2.774915         1.590702        -0.133433
 H         1.985360        -0.628949         2.148497
 H         3.532250        -2.604520         1.131040
 H         3.065905        -2.815491        -1.384304
 H         4.390768        -0.024845        -0.853181
 H         3.996684        -0.744542        -2.539668
 H         1.064647        -1.216396        -2.601514
