19
Iteration:  1933charge 0 multiplicity 1
 C        -0.013017        -0.086850         0.107105
 C         1.591624         0.026479         0.081898
 O         1.898702         1.431528         0.324276
 C         2.188687        -0.911054         1.017580
 C         2.837354        -1.941779         0.513333
 C         3.013120        -1.843337        -1.030307
 C         3.720259        -0.541992        -1.479425
 C         2.238900        -0.531790        -1.328927
 O         1.525782        -0.570447        -2.514090
 H        -0.380338         0.450238        -0.758977
 H        -0.464681        -1.049720         0.050780
 H        -0.288828         0.298424         1.121649
 H         2.590951         1.687285        -0.227169
 H         1.875210        -0.836517         2.122901
 H         3.164906        -2.814674         1.052459
 H         3.012630        -2.714656        -1.674337
 H         4.218690         0.179023        -0.762804
 H         4.108895        -0.556643        -2.437796
 H         1.563242         0.349954        -2.805963
