19
Iteration:  4290charge 0 multiplicity 1
 C         0.016514         0.088095         0.044905
 C         1.521381        -0.063277         0.049706
 O         1.998292         1.244570         0.407570
 C         1.971701        -1.178584         0.952397
 C         2.964563        -1.866868         0.410349
 C         3.121378        -1.616265        -1.075276
 C         3.755405        -0.250315        -1.403429
 C         2.179908        -0.490241        -1.288941
 O         1.439994        -0.771370        -2.416904
 H        -0.482255        -0.823666         0.447007
 H        -0.153840         0.862354         0.715774
 H        -0.316673         0.404624        -0.999494
 H         2.746234         1.341450        -0.105414
 H         1.692276        -1.229270         2.017770
 H         3.512715        -2.683330         0.894218
 H         3.215102        -2.469700        -1.851112
 H         4.378582         0.340495        -0.681653
 H         4.019966        -0.007429        -2.451259
 H         1.118548         0.017750        -2.887475
