19
Iteration:  3353charge 0 multiplicity 1
 C         0.013890        -0.105910         0.236769
 C         1.527632        -0.138986         0.053446
 O         1.867475         1.346380         0.083743
 C         2.199848        -0.959761         1.051121
 C         2.969254        -1.935178         0.425786
 C         3.054748        -1.753490        -1.048965
 C         3.706017        -0.459932        -1.282207
 C         2.239211        -0.559591        -1.340226
 O         1.481026        -0.478471        -2.542940
 H        -0.242671         0.706274        -0.378342
 H        -0.760300        -0.988387         0.058585
 H        -0.142820         0.258167         1.279047
 H         1.178740         1.809719         0.691625
 H         2.058923        -0.819559         2.142172
 H         3.535249        -2.636335         0.955269
 H         3.222571        -2.665433        -1.646648
 H         4.071847         0.129546        -0.456482
 H         4.272144        -0.257139        -2.236960
 H         1.820251         0.330863        -3.007139
