19
Iteration:  2079
 C         0.058045        -0.020917         0.085481
 C         1.571842        -0.042335         0.095512
 O         1.857166         1.398033         0.301238
 C         2.214962        -0.962097         1.039657
 C         2.986329        -1.923624         0.527939
 C         2.944615        -1.799178        -0.968886
 C         3.628840        -0.511727        -1.433777
 C         2.142997        -0.529461        -1.309969
 O         1.587500        -0.521912        -2.645795
 H        -0.096354         0.760832        -0.680035
 H        -0.337935        -1.002594        -0.253181
 H        -0.359038         0.232332         1.009691
 H         2.887465         1.491458         0.358668
 H         1.966430        -0.752304         2.110581
 H         3.591778        -2.733637         1.075500
 H         2.783178        -2.723901        -1.514218
 H         4.326657         0.063235        -0.759987
 H         4.076282        -0.571942        -2.449272
 H         0.590957        -0.497856        -2.604165
