19
Iteration:  3522charge 0 multiplicity 1
 C         0.092006        -0.184569        -0.129943
 C         1.576297         0.029207        -0.025586
 O         1.868240         1.346792         0.346890
 C         2.222735        -0.881103         1.048283
 C         2.907395        -1.950856         0.521170
 C         3.037743        -1.764206        -0.947722
 C         3.773640        -0.544330        -1.419081
 C         2.254315        -0.557603        -1.278199
 O         1.349387        -0.487680        -2.415313
 H        -0.362292         0.479495        -0.978220
 H        -0.061468        -1.212298        -0.284341
 H        -0.250432        -0.174069         0.911210
 H         1.546415         1.999918        -0.393688
 H         2.355406        -0.641228         2.128123
 H         3.456923        -2.621838         1.157275
 H         3.030405        -2.644043        -1.647965
 H         4.226636         0.149254        -0.711925
 H         4.168663        -0.488987        -2.444806
 H         1.151575         0.453473        -2.643221
