19
Iteration:   802charge 0 multiplicity 1
 C        -0.006194        -0.091198        -0.022810
 C         1.590906         0.024256        -0.009145
 O         1.818803         1.381544         0.148705
 C         2.129824        -0.945151         1.052668
 C         2.868151        -2.005231         0.603994
 C         2.900461        -1.789318        -0.894510
 C         3.782410        -0.565344        -1.312189
 C         2.255534        -0.497465        -1.278296
 O         1.626311        -0.383474        -2.542652
 H        -0.405394         0.581474         0.769519
 H        -0.526098         0.190571        -0.996144
 H        -0.320608        -1.095687         0.150243
 H         2.706481         1.635179        -0.133255
 H         2.046356        -0.649062         2.119029
 H         3.434867        -2.728802         1.228902
 H         2.805279        -2.611347        -1.647360
 H         4.487529        -0.110893        -0.544505
 H         4.136572        -0.628650        -2.327092
 H         1.373558        -1.298268        -2.778131
