19
Iteration:   331charge 0 multiplicity 1
 C         0.003231        -0.074755        -0.128700
 C         1.537257        -0.066346         0.046463
 O         1.889270         1.354257         0.171619
 C         2.097566        -1.003448         1.158357
 C         2.875621        -1.903181         0.570068
 C         3.105274        -1.826018        -0.948047
 C         3.716029        -0.421968        -1.374204
 C         2.247816        -0.722318        -1.286234
 O         1.436042        -0.340775        -2.491055
 H        -0.321189         0.881545         0.181595
 H        -0.137113        -0.298551        -1.197857
 H        -0.425143        -0.964606         0.403063
 H         2.636637         1.330842         0.700356
 H         1.952675        -0.743905         2.176817
 H         3.401744        -2.670791         1.123952
 H         3.374636        -2.721838        -1.528817
 H         4.226147         0.096774        -0.503341
 H         4.227952        -0.291922        -2.342723
 H         1.968603         0.192839        -3.138987
