19
Iteration:   639charge 0 multiplicity 1
 C         0.013348        -0.137482        -0.056695
 C         1.602523         0.011600         0.037495
 O         1.968182         1.398366         0.153243
 C         2.121263        -0.928403         1.097748
 C         2.763034        -1.967222         0.530479
 C         3.037908        -1.695168        -0.920418
 C         3.703244        -0.417448        -1.319604
 C         2.236692        -0.540238        -1.280065
 O         1.572968        -0.545455        -2.536022
 H        -0.477458        -0.145431         0.922111
 H        -0.205095         0.759647        -0.637888
 H        -0.205838        -0.961345        -0.664234
 H         2.238962         1.625837         1.119653
 H         1.651705        -0.915406         2.049060
 H         3.062624        -2.914557         0.956235
 H         3.006818        -2.508402        -1.669660
 H         4.270012         0.213484        -0.630986
 H         4.139356        -0.459934        -2.372513
 H         1.246387        -1.429939        -2.802833
