19
Iteration:  3449
 C        -0.053428         0.134805         0.108763
 C         1.487269        -0.054172         0.000531
 O         1.872374         1.302720         0.318233
 C         2.162506        -1.029584         1.040046
 C         3.007135        -1.855729         0.502573
 C         3.193288        -1.684419        -0.996809
 C         3.744536        -0.411870        -1.446190
 C         2.198733        -0.642790        -1.346487
 O         1.419160        -0.710913        -2.558362
 H        -0.236595         1.221660        -0.187464
 H        -0.580614        -0.572295        -0.607723
 H        -0.361815        -0.170940         1.166075
 H         2.386283         1.296543         1.222057
 H         1.812368        -0.931708         2.115984
 H         3.565244        -2.652737         0.888476
 H         3.358594        -2.635898        -1.546405
 H         4.072634         0.389841        -0.682135
 H         4.064113        -0.165024        -2.513573
 H         1.487156         0.072848        -3.151518
