19
Iteration:  2836charge 0 multiplicity 1
 C         0.059040        -0.108734        -0.065523
 C         1.547323        -0.036121        -0.016754
 O         1.885295         1.355353         0.362574
 C         2.140396        -0.919908         1.036063
 C         2.992971        -1.907628         0.590268
 C         3.048834        -1.834908        -0.949451
 C         3.744473        -0.512955        -1.543137
 C         2.274144        -0.477270        -1.327134
 O         1.309161        -0.493047        -2.437182
 H        -0.464760         0.147261        -1.057580
 H        -0.165969        -1.147892         0.006974
 H        -0.491811         0.423022         0.679553
 H         2.830002         1.283785         0.742764
 H         1.789595        -0.741781         2.071150
 H         3.708544        -2.518154         1.137098
 H         3.098349        -2.658529        -1.603512
 H         4.281914         0.092638        -0.851244
 H         4.256338        -0.658748        -2.553000
 H         1.466052         0.360834        -2.850258
