19
Iteration:  3716charge 0 multiplicity 1
 C        -0.056079         0.059959        -0.162658
 C         1.475593        -0.055490        -0.004816
 O         1.967225         1.327778         0.461002
 C         2.075459        -1.142843         1.053138
 C         3.029418        -1.855846         0.540288
 C         3.100807        -1.668459        -0.949448
 C         3.811673        -0.311261        -1.507103
 C         2.200217        -0.575334        -1.294512
 O         1.337972        -0.722977        -2.460096
 H        -0.317205         0.487333        -1.094578
 H        -0.546058        -0.946802        -0.050838
 H        -0.429078         0.728321         0.632659
 H         2.960802         1.245214         0.647766
 H         1.819092        -0.866343         2.114266
 H         3.802091        -2.450927         0.978772
 H         3.236188        -2.453564        -1.661990
 H         4.356256         0.372653        -0.807098
 H         3.889937        -0.321923        -2.580403
 H         1.805239        -0.082231        -3.066122
