19
Iteration:  2863
 C        -0.054880         0.028082         0.072935
 C         1.473188        -0.158549         0.056453
 O         1.893266         1.299173         0.210172
 C         2.160503        -0.984611         1.094825
 C         3.051506        -1.811984         0.484151
 C         3.158386        -1.807680        -0.979944
 C         3.628913        -0.456326        -1.450116
 C         2.124732        -0.609037        -1.246920
 O         1.498308        -0.474885        -2.566035
 H        -0.509813         0.463646        -0.785436
 H        -0.652123        -0.940975         0.267816
 H        -0.248559         0.729544         0.954211
 H         2.890418         1.267130         0.471297
 H         1.948300        -1.042553         2.161081
 H         3.563344        -2.664368         0.955625
 H         3.442736        -2.767976        -1.522806
 H         4.186108         0.138510        -0.702976
 H         3.923296        -0.387645        -2.476403
 H         1.791423         0.421355        -2.794850
