19
Iteration:  2674
 C         0.079280        -0.140383         0.030266
 C         1.585967         0.107723         0.026049
 O         1.824683         1.515923         0.462814
 C         2.139528        -0.917411         1.027421
 C         2.932838        -1.872026         0.454228
 C         2.979825        -1.868805        -0.995573
 C         3.731971        -0.590287        -1.570456
 C         2.228585        -0.540571        -1.319897
 O         1.497735        -0.618034        -2.486766
 H        -0.291537         0.074622        -1.056308
 H        -0.127333        -1.208584         0.187610
 H        -0.307025         0.574616         0.757327
 H         2.696293         1.549879         0.903720
 H         2.160149        -0.829445         2.155275
 H         3.100764        -2.842064         0.961062
 H         2.815354        -2.625844        -1.701140
 H         4.421099        -0.163026        -0.828209
 H         3.972633        -0.415186        -2.607891
 H         1.376084         0.191424        -2.992128
