19
Iteration:  3826
 C        -0.021562        -0.162546        -0.010359
 C         1.560337        -0.011812        -0.014620
 O         1.836355         1.385058         0.250735
 C         2.277934        -0.943812         1.088281
 C         3.035739        -1.965307         0.600361
 C         3.028428        -1.808232        -0.903037
 C         3.734481        -0.620365        -1.446556
 C         2.241898        -0.523140        -1.326895
 O         1.392856        -0.327296        -2.516736
 H        -0.452281         0.635618        -0.622192
 H        -0.255469        -1.097868        -0.354270
 H        -0.220217        -0.125044         1.103369
 H         0.946112         1.774658         0.426695
 H         2.144800        -0.863107         2.131118
 H         3.482304        -2.746122         1.288343
 H         3.094421        -2.754217        -1.459107
 H         4.536663         0.102386        -1.243644
 H         3.981238        -0.880704        -2.583877
 H         1.902350         0.266642        -3.058495
