19
Iteration:  3510charge 0 multiplicity 1
 C        -0.021861        -0.237333        -0.051840
 C         1.597810        -0.021814         0.005486
 O         1.966068         1.365187         0.306522
 C         2.258762        -0.890744         1.043683
 C         2.924692        -1.913945         0.533940
 C         3.016133        -1.776827        -0.941593
 C         3.751565        -0.443679        -1.370764
 C         2.244274        -0.495577        -1.373941
 O         1.363719        -0.546794        -2.421213
 H        -0.540663         0.637838        -0.622057
 H        -0.272199        -1.055878        -0.697683
 H        -0.603331        -0.099504         0.851322
 H         1.972485         1.832128        -0.533786
 H         1.869710        -0.703039         2.032198
 H         3.335736        -2.825805         0.994947
 H         3.190179        -2.678407        -1.636446
 H         4.227606         0.095991        -0.593708
 H         4.331878        -0.512163        -2.322068
 H         1.075374         0.378542        -2.552078
