19
Iteration:  2359charge 0 multiplicity 1
 C         0.101594        -0.050533        -0.291335
 C         1.576603        -0.038800         0.003718
 O         2.018873         1.307437         0.400475
 C         2.206959        -0.971049         1.180166
 C         2.957275        -1.916048         0.593311
 C         2.988933        -1.672379        -0.989563
 C         3.615941        -0.459578        -1.547148
 C         2.167148        -0.498029        -1.262911
 O         1.304475        -0.587389        -2.383039
 H        -0.164597         0.681281        -1.078373
 H        -0.060362        -1.125541        -0.608827
 H        -0.482429         0.045802         0.595896
 H         2.952509         1.260712         0.473508
 H         1.987477        -0.961062         2.260634
 H         3.717336        -2.514763         1.036678
 H         2.942331        -2.513176        -1.646421
 H         4.354978         0.074854        -1.017128
 H         4.002126        -0.690279        -2.553373
 H         1.309507         0.305454        -2.747779
