19
Iteration:  1726charge 0 multiplicity 1
 C         0.013923        -0.052486         0.019178
 C         1.557244         0.000405        -0.005393
 O         1.940145         1.351534         0.340793
 C         2.159709        -0.931248         1.053301
 C         2.941922        -1.860683         0.546265
 C         2.880017        -1.804276        -0.963742
 C         3.783920        -0.578708        -1.376960
 C         2.260493        -0.543126        -1.348030
 O         1.452540        -0.537600        -2.617919
 H        -0.348379         0.019676        -1.028532
 H        -0.331595        -0.965983         0.438243
 H        -0.414787         0.714014         0.699773
 H         1.729596         1.342037         1.296173
 H         2.256832        -0.620832         2.039527
 H         3.521734        -2.720179         0.917413
 H         2.965199        -2.568006        -1.742677
 H         4.489053        -0.034755        -0.795985
 H         4.271173        -0.564126        -2.386806
 H         1.524693         0.421892        -2.887184
