19
Iteration:  4635charge 0 multiplicity 1
 C         0.034830         0.057897        -0.039776
 C         1.633945         0.005343         0.097435
 O         1.984348         1.324559         0.468580
 C         2.049033        -1.124132         1.047015
 C         2.985892        -1.983819         0.439173
 C         3.077539        -1.660259        -1.000462
 C         3.653422        -0.290566        -1.513025
 C         2.162903        -0.520502        -1.351358
 O         1.425606        -0.713286        -2.529499
 H        -0.354334        -0.868878        -0.396428
 H        -0.439896         0.358412         0.974165
 H        -0.195631         0.799944        -0.710927
 H         2.997568         1.336667         0.529576
 H         1.834212        -1.048247         2.118999
 H         3.530171        -2.699351         1.002786
 H         3.353158        -2.538596        -1.545415
 H         4.244013         0.420014        -0.953316
 H         3.858166        -0.198998        -2.607717
 H         0.557988        -0.347979        -2.366936
