19
Iteration:  3919
 C        -0.000178        -0.239045         0.288037
 C         1.565323        -0.009541        -0.017560
 O         1.802275         1.426693         0.152099
 C         2.241034        -0.958168         0.985562
 C         2.931587        -1.958305         0.469470
 C         2.979056        -1.799547        -0.982091
 C         3.745625        -0.594158        -1.451073
 C         2.208169        -0.517732        -1.284190
 O         1.610652        -0.376446        -2.486386
 H        -0.494706         0.389348        -0.424950
 H        -0.292540        -1.341911         0.040640
 H        -0.142712         0.028347         1.312307
 H         0.876304         1.800024         0.292292
 H         2.145070        -0.767884         2.028058
 H         3.351683        -2.696100         1.141579
 H         2.763077        -2.505498        -1.801387
 H         4.266631        -0.022942        -0.779438
 H         4.101022        -0.437605        -2.432052
 H         1.893882         0.477666        -2.915187
