19
Iteration:  2316charge 0 multiplicity 1
 C        -0.032535         0.054723         0.146261
 C         1.523046         0.057228         0.017346
 O         1.844712         1.416221         0.388629
 C         2.130085        -1.040708         1.035353
 C         2.997512        -1.916011         0.457290
 C         3.070374        -1.765468        -1.019001
 C         3.753309        -0.561580        -1.490783
 C         2.218478        -0.573684        -1.302137
 O         1.493005        -0.643873        -2.613777
 H        -0.769454         0.564685        -0.528868
 H        -0.415197        -0.917963         0.606420
 H        -0.196414         0.705752         0.997982
 H         2.722025         1.437205         0.677109
 H         1.938400        -0.888305         2.123652
 H         3.576813        -2.696691         0.939903
 H         2.969892        -2.621875        -1.655980
 H         4.365636         0.042044        -0.856429
 H         4.082679        -0.432815        -2.507985
 H         1.510487         0.198432        -3.114188
