19
Iteration:   835charge 0 multiplicity 1
 C        -0.020294        -0.054177        -0.122706
 C         1.517812        -0.050346         0.040834
 O         1.887278         1.293575         0.334505
 C         2.105883        -0.782863         1.004255
 C         2.932019        -1.811835         0.646910
 C         2.999035        -1.899648        -0.876126
 C         3.751978        -0.627233        -1.413102
 C         2.165257        -0.711686        -1.282921
 O         1.597081        -0.308456        -2.560834
 H        -0.727424        -0.143383         0.727564
 H        -0.135386         0.953392        -0.631345
 H        -0.203192        -0.889751        -0.738956
 H         2.667197         1.586986        -0.294948
 H         2.013368        -0.372602         2.020025
 H         3.563208        -2.227282         1.423284
 H         2.808629        -2.776750        -1.500387
 H         4.520047        -0.236949        -0.619378
 H         4.096379        -0.501896        -2.384189
 H         1.339760        -1.087386        -3.122255
