19
Iteration:  1989charge 0 multiplicity 1
 C        -0.003030        -0.018385         0.052548
 C         1.555082        -0.050100         0.032331
 O         1.970108         1.326923         0.086153
 C         2.251935        -0.895279         1.117271
 C         2.903708        -1.990870         0.486693
 C         3.070527        -1.807742        -1.008580
 C         3.611829        -0.431463        -1.347022
 C         2.137662        -0.680505        -1.230318
 O         1.449965        -0.326054        -2.482394
 H        -0.677734         0.596579        -0.470065
 H        -0.279909        -1.070518        -0.152574
 H        -0.328069         0.021931         1.123070
 H         2.931105         1.326282         0.395184
 H         1.944010        -0.925679         2.180527
 H         3.298959        -2.856620         1.026359
 H         3.049019        -2.781790        -1.559209
 H         4.366170         0.068603        -0.715017
 H         3.879098        -0.181873        -2.351777
 H         1.874488        -0.898550        -3.160490
