19
Iteration:  1005
 C         0.076914        -0.205932        -0.076409
 C         1.614213         0.015675        -0.004319
 O         1.837057         1.442447         0.340500
 C         2.121223        -0.919163         1.038655
 C         2.821997        -1.989034         0.518412
 C         2.912902        -1.817033        -1.006070
 C         3.751284        -0.576805        -1.333888
 C         2.318491        -0.458602        -1.327744
 O         1.531469        -0.352866        -2.468784
 H        -0.320428        -0.175842        -1.110187
 H        -0.290883        -1.153863         0.282830
 H        -0.440670         0.371369         0.663520
 H         2.570119         1.746145        -0.243008
 H         1.930043        -0.679594         2.119285
 H         3.164085        -2.785338         1.178556
 H         2.877780        -2.708290        -1.641570
 H         4.426435        -0.199813        -0.480446
 H         4.228056        -0.420654        -2.274848
 H         1.666580        -1.191718        -2.924755
