19
Iteration:    22
 C        -0.049254        -0.090437         0.071986
 C         1.487138        -0.020425        -0.021356
 O         1.919348         1.400644         0.322284
 C         2.084494        -0.986277         1.005578
 C         2.938590        -1.913817         0.511834
 C         3.062027        -1.745174        -0.965057
 C         3.849750        -0.525206        -1.359857
 C         2.289814        -0.479168        -1.364588
 O         1.386844        -0.470942        -2.607732
 H        -0.352623         0.567198         0.862122
 H        -0.596007         0.244751        -0.810465
 H        -0.387970        -1.102562         0.397139
 H         2.685457         1.124603         0.969244
 H         1.975691        -0.690799         2.044256
 H         3.646114        -2.503144         1.090504
 H         3.199233        -2.625496        -1.570686
 H         4.349858        -0.009581        -0.539694
 H         4.402207        -0.526466        -2.281727
 H         1.336010        -1.406990        -2.929574
