19
Iteration:  2980charge 0 multiplicity 1
 C        -0.028803        -0.161890        -0.057279
 C         1.532823        -0.046711         0.034287
 O         1.770287         1.378545         0.316114
 C         2.253975        -0.866346         1.020792
 C         3.083332        -1.808788         0.526615
 C         3.019547        -1.925158        -0.939378
 C         3.658838        -0.672196        -1.470812
 C         2.200153        -0.608334        -1.302021
 O         1.497944        -0.331057        -2.495040
 H        -0.559559         0.371705        -0.859725
 H        -0.390249        -1.206924        -0.163117
 H        -0.515785         0.230369         0.911120
 H         2.409585         1.467394         1.126936
 H         2.242488        -0.470479         2.038702
 H         3.961449        -2.120036         1.111185
 H         3.208872        -2.840659        -1.588527
 H         4.224726        -0.078607        -0.783520
 H         3.839186        -0.759821        -2.564956
 H         1.756977         0.528334        -2.897358
