19
Iteration:  2515
 C         0.083703        -0.182572        -0.033371
 C         1.555321        -0.000389         0.084851
 O         1.779718         1.388807         0.240362
 C         2.298658        -0.852658         1.095662
 C         2.968486        -1.885813         0.610149
 C         2.882835        -1.851565        -0.966977
 C         3.706114        -0.673839        -1.548756
 C         2.204645        -0.556643        -1.271775
 O         1.496132        -0.345744        -2.468426
 H        -0.127925         0.426353        -0.982491
 H        -0.292432        -1.180894        -0.237431
 H        -0.607735         0.291713         0.760432
 H         2.716682         1.514401         0.637587
 H         2.094374        -0.743327         2.230956
 H         3.657954        -2.616817         1.150869
 H         2.608143        -2.750474        -1.474870
 H         4.477548         0.007510        -1.137892
 H         3.711610        -0.854893        -2.589602
 H         2.058069         0.073840        -3.124567
