19
Iteration:  3712
 C        -0.030501         0.063756        -0.160590
 C         1.485969        -0.022960         0.018106
 O         1.964438         1.294762         0.497656
 C         2.079817        -1.106661         1.085939
 C         3.038182        -1.838717         0.517265
 C         3.091743        -1.647318        -0.959376
 C         3.751672        -0.329236        -1.523936
 C         2.154227        -0.594726        -1.284607
 O         1.394365        -0.719841        -2.486395
 H        -0.347982         0.440766        -1.138112
 H        -0.644728        -0.928278        -0.042365
 H        -0.546437         0.616995         0.605095
 H         2.908171         1.303631         0.483923
 H         1.884694        -0.880681         2.136705
 H         3.747987        -2.505469         0.987050
 H         3.189454        -2.492169        -1.678665
 H         4.386479         0.286989        -0.894422
 H         4.095164        -0.318477        -2.561910
 H         1.839788        -0.212044        -3.162661
