19
Iteration:  1545charge 0 multiplicity 1
 C         0.090763        -0.118293         0.059110
 C         1.573673        -0.061817         0.017207
 O         2.009964         1.339953         0.091670
 C         2.138479        -1.025965         1.058059
 C         2.883129        -2.036607         0.551421
 C         2.932091        -1.752308        -0.979825
 C         3.742135        -0.433857        -1.256076
 C         2.162363        -0.560018        -1.281443
 O         1.440587        -0.346960        -2.488762
 H        -0.183758         0.278688        -0.873013
 H        -0.311046        -1.078704         0.128744
 H        -0.408660         0.319888         0.888226
 H         1.356775         1.919147        -0.460848
 H         2.115075        -0.892686         2.103702
 H         3.259077        -2.871744         1.131473
 H         3.135900        -2.665037        -1.532484
 H         4.409775         0.037233        -0.622315
 H         4.137069        -0.442817        -2.286720
 H         2.123667         0.184074        -2.928137
