19
Iteration:  2093
 C         0.022612        -0.055809         0.108626
 C         1.556049         0.004423        -0.037732
 O         1.943803         1.347776         0.199786
 C         2.150560        -0.940773         1.062663
 C         2.964759        -1.872721         0.476037
 C         3.012920        -1.844315        -0.972897
 C         3.689115        -0.475025        -1.335681
 C         2.172694        -0.654059        -1.333894
 O         1.497009        -0.456383        -2.563870
 H        -0.571568         0.697221        -0.517232
 H        -0.419466        -0.987441        -0.130562
 H        -0.234858         0.168793         1.194123
 H         2.863410         1.353872         0.306975
 H         2.127454        -0.779516         2.211561
 H         3.313004        -2.699767         1.105427
 H         3.310350        -2.577771        -1.687397
 H         4.146979        -0.026489        -0.382398
 H         4.096637        -0.407465        -2.318746
 H         0.607484        -0.135066        -2.357958
