19
Iteration:  4048charge 0 multiplicity 1
 C        -0.074700         0.148171        -0.005857
 C         1.531672        -0.029158         0.075115
 O         2.019406         1.234870         0.485092
 C         2.112571        -1.114788         1.055350
 C         2.976338        -1.895069         0.514352
 C         3.183303        -1.613365        -0.944231
 C         3.644734        -0.240612        -1.465835
 C         2.164925        -0.556873        -1.390709
 O         1.413458        -0.829054        -2.594429
 H        -0.221829         0.570784        -0.980035
 H        -0.701273        -0.794498         0.256800
 H        -0.398280         0.929712         0.606154
 H         2.842039         1.393830         0.080497
 H         1.618013        -1.135815         2.051173
 H         3.591762        -2.784753         0.984178
 H         3.570329        -2.379923        -1.694804
 H         4.126878         0.412647        -0.766552
 H         3.892624        -0.279679        -2.546850
 H         1.401219        -0.012169        -3.074050
