19
Iteration:  1067charge 0 multiplicity 1
 C        -0.023406        -0.107261         0.113643
 C         1.560382        -0.118002        -0.047500
 O         1.809637         1.372406         0.101196
 C         2.065132        -0.974643         1.015374
 C         2.888369        -1.955287         0.551939
 C         3.082972        -1.811164        -0.964734
 C         3.774076        -0.553022        -1.228700
 C         2.181789        -0.615728        -1.357636
 O         1.617485        -0.256744        -2.555307
 H        -0.625779         0.313828        -0.688850
 H        -0.170390        -1.162565         0.155197
 H        -0.245513         0.533389         1.027296
 H         2.803787         1.476580         0.028084
 H         1.898817        -0.774907         2.104430
 H         3.422978        -2.638860         1.277365
 H         3.367002        -2.684026        -1.580271
 H         4.455692        -0.193777        -0.420953
 H         4.176385        -0.514511        -2.188469
 H         0.843184         0.228365        -2.234510
