19
Iteration:  4128charge 0 multiplicity 1
 C         0.148454        -0.280665         0.136863
 C         1.560746        -0.050923         0.043581
 O         1.664953         1.398207         0.227162
 C         2.326387        -0.865991         1.028386
 C         2.876283        -1.906905         0.481293
 C         2.900821        -1.831503        -1.027766
 C         3.667058        -0.597916        -1.413119
 C         2.250098        -0.482951        -1.268346
 O         1.616501        -0.329006        -2.544664
 H        -0.271625        -1.009920        -0.590325
 H        -0.192910        -0.805728         1.034868
 H        -0.487540         0.662956         0.135696
 H         2.557833         1.526860         0.502244
 H         2.118218        -0.966188         2.121299
 H         3.312773        -2.715638         1.004261
 H         2.820394        -2.675565        -1.690784
 H         4.375331        -0.168343        -0.706378
 H         3.977657        -0.504686        -2.454384
 H         1.638687         0.568131        -2.836211
