19
Iteration:  4232
 C         0.020799        -0.174159         0.018761
 C         1.519238        -0.038410        -0.006069
 O         1.860375         1.327786         0.274149
 C         2.227417        -0.999356         1.057242
 C         2.974503        -1.852208         0.497405
 C         2.929089        -1.809570        -1.044586
 C         3.755005        -0.464466        -1.420244
 C         2.222272        -0.538758        -1.313798
 O         1.464090        -0.392066        -2.460121
 H        -0.197633        -1.009349         0.623703
 H        -0.403490         0.796357         0.507406
 H        -0.449175        -0.434143        -0.852150
 H         2.832107         1.128428         0.608986
 H         1.884899        -0.942143         2.112846
 H         3.668497        -2.584609         0.870312
 H         2.813389        -2.726697        -1.576161
 H         4.263232        -0.103773        -0.557976
 H         4.343075        -0.324917        -2.301830
 H         1.382656         0.564150        -2.712620
