19
Iteration:  1664charge 0 multiplicity 1
 C         0.077479        -0.049462         0.008235
 C         1.586063        -0.028124        -0.058631
 O         1.885370         1.336761         0.138224
 C         2.170995        -0.999034         1.078464
 C         2.836497        -1.986036         0.542102
 C         3.065441        -1.747539        -0.927436
 C         3.812151        -0.523207        -1.267295
 C         2.251863        -0.550712        -1.292207
 O         1.322860        -0.439442        -2.465840
 H        -0.292449         0.919896        -0.387209
 H        -0.322962        -0.895370        -0.546788
 H        -0.259661        -0.230048         1.119623
 H         2.707434         1.560017        -0.323757
 H         1.617810        -0.997641         1.988554
 H         3.382736        -2.731959         1.163236
 H         3.132871        -2.463921        -1.787557
 H         4.288973         0.071341        -0.560877
 H         4.169283        -0.537204        -2.333940
 H         1.745345         0.363373        -2.869928
