19
Iteration:  1161
 C        -0.061691         0.019789        -0.053259
 C         1.537771        -0.083275        -0.016683
 O         1.809681         1.341623         0.389362
 C         2.068621        -0.984031         1.028803
 C         2.952553        -1.818922         0.557563
 C         3.089372        -1.775778        -0.906835
 C         3.702062        -0.609463        -1.524577
 C         2.269468        -0.512645        -1.297661
 O         1.567934        -0.520769        -2.516438
 H        -0.393845         0.737472        -0.825194
 H        -0.297292        -1.009959        -0.419319
 H        -0.347218         0.348505         0.952054
 H         2.567346         1.335501         0.984415
 H         1.778219        -0.893268         2.117163
 H         3.647252        -2.494330         1.170773
 H         2.872106        -2.574845        -1.627237
 H         4.352407         0.040541        -0.887823
 H         4.160072        -0.714062        -2.502876
 H         2.029273         0.069282        -3.158103
