19
Iteration:    30charge 0 multiplicity 1
 C        -0.050673        -0.050258         0.109027
 C         1.511660         0.014250        -0.045199
 O         1.890683         1.340451         0.389113
 C         2.090511        -0.930720         0.963062
 C         2.983841        -1.866697         0.503470
 C         3.000892        -1.757124        -0.960669
 C         3.842144        -0.481899        -1.384220
 C         2.232620        -0.559742        -1.391798
 O         1.449594        -0.486544        -2.560437
 H        -0.355461         0.684166         0.822407
 H        -0.531442        -0.011237        -0.874963
 H        -0.299276        -1.150069         0.377852
 H         2.890666         1.349786         0.503783
 H         1.771321        -0.779863         2.051285
 H         3.277241        -2.818041         1.011791
 H         3.229562        -2.666835        -1.518675
 H         4.309448        -0.082870        -0.528738
 H         4.396157        -0.464657        -2.376839
 H         1.643140        -1.314749        -3.037023
