19
Iteration:  4106
 C        -0.020310        -0.171258         0.027213
 C         1.566266        -0.051527         0.013106
 O         1.788405         1.401186         0.268259
 C         2.198048        -1.017497         1.062901
 C         2.967764        -1.972156         0.550171
 C         3.061359        -1.739462        -0.959383
 C         3.769341        -0.494985        -1.456973
 C         2.257695        -0.579478        -1.336776
 O         1.415071        -0.387574        -2.525805
 H        -0.552249        -0.561447        -0.843586
 H        -0.469468        -0.803965         0.826228
 H        -0.361936         0.872853         0.271038
 H         2.805615         1.493168         0.444452
 H         2.232796        -0.797057         2.141341
 H         3.509880        -2.762133         0.941523
 H         3.083882        -2.561907        -1.615581
 H         4.375043        -0.022088        -0.698756
 H         4.346154        -0.561130        -2.339215
 H         1.279015         0.611264        -2.598039
