19
Iteration:  2200charge 0 multiplicity 1
 C         0.094718        -0.222136        -0.004499
 C         1.579981         0.094035         0.005015
 O         1.747532         1.502799         0.436599
 C         2.230188        -0.887338         1.099408
 C         3.014939        -1.840195         0.549895
 C         2.876333        -1.840005        -0.915332
 C         3.730436        -0.808363        -1.572350
 C         2.202725        -0.511142        -1.335182
 O         1.499454        -0.433553        -2.607436
 H        -0.433613         0.393633        -0.756668
 H         0.068235        -1.233977        -0.226310
 H        -0.341822         0.045480         0.928762
 H         2.418215         1.512349         1.076197
 H         2.086053        -0.387446         2.054265
 H         3.366198        -2.705616         1.099781
 H         2.710107        -2.814908        -1.372582
 H         4.569299        -0.316074        -1.046288
 H         4.062876        -0.899798        -2.599938
 H         1.896698         0.297143        -3.130650
