19
Iteration:  2412charge 0 multiplicity 1
 C        -0.024446         0.031990         0.335142
 C         1.497279        -0.063920        -0.008420
 O         1.857821         1.344653         0.155810
 C         2.187627        -0.946568         0.984002
 C         2.925513        -1.956276         0.479789
 C         2.973942        -1.773659        -1.006215
 C         3.753051        -0.474387        -1.312113
 C         2.262334        -0.535731        -1.325000
 O         1.520926        -0.601930        -2.631766
 H        -0.329266         1.058586         0.076366
 H        -0.710042        -0.644621        -0.289334
 H        -0.164783        -0.095394         1.364725
 H         2.804582         1.371249         0.127064
 H         2.133079        -0.720484         2.070630
 H         3.346770        -2.848165         0.926708
 H         3.202766        -2.640350        -1.602277
 H         4.188706         0.187109        -0.547928
 H         4.308210        -0.472993        -2.322996
 H         1.366052         0.344661        -2.749015
