19
Iteration:  4903charge 0 multiplicity 1
 C         0.062964         0.032518        -0.060142
 C         1.526750        -0.095824         0.026573
 O         1.955192         1.189115         0.447571
 C         2.107496        -0.972071         1.063533
 C         3.012778        -1.856785         0.497289
 C         3.097192        -1.643378        -0.989387
 C         3.720477        -0.363867        -1.529570
 C         2.180152        -0.592602        -1.314303
 O         1.321152        -0.632593        -2.518598
 H        -0.158920        -0.119779        -1.077450
 H        -0.360694        -0.781007         0.494622
 H        -0.267959         0.971114         0.332494
 H         2.977171         1.111990         0.652178
 H         1.929153        -0.660892         2.161470
 H         3.765781        -2.371809         1.126880
 H         3.172332        -2.467132        -1.675464
 H         4.144458         0.178158        -0.715835
 H         4.061980        -0.338758        -2.535685
 H         0.929247         0.273850        -2.736594
