19
Iteration:  2245charge 0 multiplicity 1
 C         0.091985        -0.168468        -0.057483
 C         1.617370        -0.006166        -0.023548
 O         1.859433         1.382266         0.058987
 C         2.273669        -0.927214         1.129035
 C         2.884315        -1.943806         0.492435
 C         2.934375        -1.787804        -0.928346
 C         3.796943        -0.590853        -1.313151
 C         2.231622        -0.574968        -1.317958
 O         1.337432        -0.371414        -2.348613
 H        -0.486779         0.610472        -0.518460
 H        -0.161988        -1.098564        -0.402711
 H        -0.257543        -0.160296         0.993837
 H         2.734258         1.592507        -0.214643
 H         2.155801        -0.846158         2.155148
 H         3.380027        -2.712565         1.018446
 H         2.928850        -2.641183        -1.674655
 H         4.403547        -0.145310        -0.550907
 H         4.280542        -0.524482        -2.348672
 H         1.018077         0.554239        -2.380675
