19
Iteration:  3858
 C         0.185236        -0.403934        -0.092398
 C         1.602545         0.033312         0.005914
 O         1.895098         1.378093         0.182365
 C         2.241555        -0.857842         1.057419
 C         2.901743        -1.846344         0.534830
 C         2.832643        -1.843473        -1.029099
 C         3.714799        -0.602831        -1.432947
 C         2.266117        -0.518501        -1.203358
 O         1.447103        -0.295479        -2.333074
 H        -0.396884        -0.378646        -0.997586
 H         0.128265        -1.426969         0.279749
 H        -0.522373         0.067703         0.650743
 H         1.021547         1.915438         0.186451
 H         2.380640        -0.695189         2.090261
 H         3.378340        -2.689392         1.138563
 H         2.666568        -2.716979        -1.705631
 H         4.397781        -0.095820        -0.740668
 H         3.857142        -0.554943        -2.596180
 H         1.797281         0.544972        -2.758405
