19
Iteration:  3621charge 0 multiplicity 1
 C         0.081839        -0.301585         0.047198
 C         1.609978        -0.006833         0.061414
 O         1.791328         1.429353        -0.034497
 C         2.243573        -0.944491         1.118396
 C         2.820270        -2.043131         0.521855
 C         2.967943        -1.851279        -0.963635
 C         3.724186        -0.453378        -1.339717
 C         2.259888        -0.493426        -1.283067
 O         1.491982        -0.340416        -2.437106
 H        -0.368801         0.626000        -0.632790
 H        -0.012938        -1.247193        -0.440731
 H        -0.325562        -0.432619         1.146462
 H         2.756478         1.659197         0.241056
 H         2.229902        -0.825417         2.232320
 H         3.326799        -2.795266         1.093979
 H         3.189393        -2.705167        -1.546698
 H         4.132740         0.239669        -0.524457
 H         4.085533        -0.538398        -2.359095
 H         1.070000         0.538541        -2.407031
