19
Iteration:  1498charge 0 multiplicity 1
 C        -0.026403        -0.086873         0.053437
 C         1.564464        -0.035079         0.008365
 O         1.943560         1.326882         0.380013
 C         2.111554        -0.926987         1.042165
 C         2.907286        -1.881662         0.524586
 C         2.947560        -1.791809        -0.977513
 C         3.751185        -0.636884        -1.432979
 C         2.249066        -0.467396        -1.299861
 O         1.554392        -0.483549        -2.569822
 H        -0.510632         0.751891        -0.484976
 H        -0.471932        -0.994598        -0.282027
 H        -0.370527        -0.224157         1.092118
 H         1.747867         1.840610        -0.387316
 H         2.152886        -0.506185         2.100804
 H         3.475490        -2.736526         0.953971
 H         2.855554        -2.612605        -1.698211
 H         4.376934         0.012278        -0.762393
 H         4.225324        -0.740170        -2.380624
 H         1.614048         0.440610        -2.910937
