19
Iteration:  4881
 C        -0.104233        -0.079236        -0.011826
 C         1.521298        -0.010667        -0.026087
 O         2.074465         1.363913         0.481070
 C         2.105045        -1.005519         0.986530
 C         3.018987        -1.876995         0.412093
 C         3.081345        -1.682016        -0.997197
 C         3.682020        -0.377112        -1.451561
 C         2.225496        -0.490864        -1.335041
 O         1.373618        -0.687692        -2.427763
 H        -0.442158        -0.342715        -0.983060
 H        -0.352326        -0.867005         0.661985
 H        -0.555363         0.843742         0.341803
 H         3.007747         1.249930         0.548071
 H         1.848226        -1.161264         2.098865
 H         3.416713        -2.736722         0.973802
 H         3.071258        -2.493472        -1.684966
 H         4.117150         0.358090        -0.810768
 H         3.929505        -0.399739        -2.490335
 H         1.545017        -0.192900        -3.207213
