19
Iteration:   509charge 0 multiplicity 1
 C        -0.002216        -0.139554        -0.033069
 C         1.515486         0.048063         0.025323
 O         1.869980         1.444739         0.232968
 C         2.070019        -0.957931         1.087041
 C         2.846993        -1.951835         0.516352
 C         2.979452        -1.788853        -0.986922
 C         3.792338        -0.574875        -1.358451
 C         2.270588        -0.468905        -1.219627
 O         1.568886        -0.468659        -2.524309
 H        -0.378590        -0.644612         0.918960
 H        -0.382133         0.878335        -0.212075
 H        -0.059390        -0.852991        -0.823361
 H         2.693138         1.753788        -0.100626
 H         2.107175        -0.634800         2.145716
 H         3.433391        -2.668064         1.082295
 H         3.008454        -2.604570        -1.667711
 H         4.464204        -0.021567        -0.588879
 H         4.027874        -0.584771        -2.396861
 H         1.500724        -1.410940        -2.845309
