19
Iteration:  1540
 C         0.085771        -0.131807         0.084809
 C         1.549435        -0.068425         0.011074
 O         2.031531         1.341149         0.102989
 C         2.131072        -1.037644         1.054038
 C         2.908788        -1.997405         0.557102
 C         2.937980        -1.797384        -0.958351
 C         3.704074        -0.451498        -1.259106
 C         2.157103        -0.558226        -1.322142
 O         1.466745        -0.334275        -2.496265
 H        -0.299766         0.389893        -0.873608
 H        -0.294028        -1.222531         0.021398
 H        -0.357204         0.433938         0.969347
 H         1.427226         1.778365        -0.487860
 H         2.095296        -0.689544         2.144111
 H         3.213222        -2.885390         1.141238
 H         3.179978        -2.594365        -1.679276
 H         4.314813         0.184965        -0.506142
 H         4.139170        -0.493374        -2.259316
 H         2.034480         0.303539        -2.969547
