19
Iteration:  3218
 C        -0.037826        -0.108571         0.162509
 C         1.503675        -0.029268         0.001788
 O         1.914724         1.327741         0.312092
 C         2.159855        -0.869521         1.006366
 C         2.961600        -1.820863         0.523149
 C         3.056728        -1.841988        -0.956743
 C         3.799862        -0.527986        -1.456346
 C         2.193704        -0.626849        -1.404190
 O         1.511587        -0.519129        -2.588880
 H        -0.541261         0.730331        -0.542341
 H        -0.310231        -1.081948        -0.101322
 H        -0.290475         0.095569         1.265226
 H         1.088046         1.869400         0.536757
 H         2.165832        -0.694467         2.069103
 H         3.526744        -2.457310         1.179018
 H         3.138827        -2.727568        -1.473332
 H         4.099857         0.117499        -0.618855
 H         4.244403        -0.536764        -2.446870
 H         1.526984         0.447975        -2.749809
