19
Iteration:  2569
 C         0.066665        -0.047219         0.104748
 C         1.575948         0.026671        -0.005964
 O         1.907379         1.410598         0.197992
 C         2.175098        -0.941728         1.110952
 C         2.784593        -1.971796         0.463004
 C         3.032121        -1.774646        -0.987680
 C         3.698901        -0.450880        -1.378120
 C         2.233406        -0.536748        -1.305065
 O         1.523910        -0.617284        -2.534229
 H        -0.561545         0.850199         0.036608
 H        -0.260234        -0.910856        -0.410622
 H        -0.113528        -0.435567         1.150019
 H         2.905565         1.576798        -0.004836
 H         1.985980        -0.746910         2.221070
 H         3.177273        -2.928850         0.841894
 H         3.059193        -2.647605        -1.571540
 H         4.262630         0.098643        -0.636274
 H         4.117982        -0.419120        -2.374973
 H         0.840845         0.035208        -2.683699
