19
Iteration:  1240charge 0 multiplicity 1
 C         0.037622        -0.135731         0.059849
 C         1.580135         0.034080         0.030972
 O         1.900077         1.483367         0.207524
 C         2.060468        -0.996423         1.050079
 C         2.797300        -2.004001         0.526453
 C         3.086206        -1.730254        -0.947347
 C         3.786812        -0.509519        -1.309473
 C         2.124850        -0.543161        -1.322502
 O         1.606086        -0.533351        -2.564263
 H        -0.388120         0.587327        -0.661345
 H        -0.193654        -1.146546        -0.200084
 H        -0.197940         0.024929         1.201518
 H         2.545601         1.536214        -0.444350
 H         1.737720        -1.112410         2.044466
 H         3.056969        -2.855658         1.057611
 H         3.283418        -2.482958        -1.716592
 H         4.059388        -0.024201        -0.428127
 H         4.406426        -0.528948        -2.206846
 H         1.028065         0.234913        -2.779791
