19
Iteration:  2998charge 0 multiplicity 1
 C        -0.022157        -0.180506         0.141574
 C         1.490029        -0.109806        -0.028080
 O         1.795445         1.271215         0.155006
 C         2.291090        -0.873531         1.088407
 C         3.035950        -1.838830         0.576400
 C         2.991223        -1.826367        -0.928805
 C         3.742637        -0.601743        -1.443393
 C         2.166103        -0.532353        -1.336399
 O         1.488659        -0.306964        -2.578472
 H        -0.366763         0.397238        -0.782781
 H        -0.365087        -1.159471         0.051303
 H        -0.254845         0.430197         0.962320
 H         1.809573         1.415550         1.169424
 H         2.336460        -0.619073         2.131578
 H         3.644239        -2.524500         1.192311
 H         2.886319        -2.792840        -1.487512
 H         4.481123        -0.069354        -0.705257
 H         4.141761        -0.640883        -2.422963
 H         1.910733         0.500812        -2.964405
