19
Iteration:  2530charge 0 multiplicity 1
 C        -0.003859        -0.101888         0.057879
 C         1.587019        -0.023107         0.050657
 O         1.786568         1.389641         0.297401
 C         2.256892        -0.871470         1.120529
 C         2.947070        -1.826661         0.511984
 C         2.900189        -1.821776        -0.926027
 C         3.715179        -0.689218        -1.499411
 C         2.216630        -0.503074        -1.334960
 O         1.493916        -0.463454        -2.573583
 H        -0.497897         0.594433        -0.579037
 H        -0.276395        -1.142780        -0.394167
 H        -0.235527         0.020736         1.126809
 H         2.649496         1.492277         0.638530
 H         2.420279        -0.507798         2.082937
 H         3.445315        -2.652145         0.947495
 H         2.989812        -2.707870        -1.572115
 H         4.416489        -0.389443        -0.736058
 H         4.222576        -0.830241        -2.542245
 H         2.049517         0.163971        -3.104880
