19
Iteration:  2943
 C         0.124241        -0.218122        -0.103780
 C         1.655255         0.013893         0.018429
 O         1.817300         1.361858         0.330437
 C         2.160279        -0.940907         1.133135
 C         2.852121        -1.931301         0.543512
 C         2.967970        -1.704501        -0.974321
 C         3.720774        -0.531612        -1.503350
 C         2.259093        -0.360132        -1.298845
 O         1.416570        -0.599785        -2.403201
 H        -0.134363         0.603351        -0.794366
 H        -0.038986        -1.209922        -0.552613
 H        -0.381306        -0.232243         0.814709
 H         2.638793         1.711713        -0.182010
 H         2.138180        -0.832369         2.228276
 H         3.508187        -2.542275         1.175631
 H         3.050790        -2.459061        -1.731760
 H         4.499664         0.112822        -0.985887
 H         4.033481        -0.701329        -2.539517
 H         1.171904         0.235171        -2.817598
