19
Iteration:  4248charge 0 multiplicity 1
 C         0.035109        -0.101661         0.110820
 C         1.558375        -0.066507         0.003856
 O         1.929592         1.282757         0.392499
 C         2.149851        -0.983905         1.011878
 C         2.929465        -1.933287         0.477767
 C         3.074101        -1.728595        -1.002021
 C         3.633498        -0.411105        -1.375177
 C         2.181100        -0.549468        -1.342348
 O         1.451655        -0.501968        -2.605989
 H        -0.528856        -0.868515         0.755556
 H        -0.373904         0.801437         0.448965
 H        -0.471353        -0.218468        -0.938758
 H         2.899984         1.513768         0.346852
 H         2.065677        -0.741908         2.052803
 H         3.454354        -2.654306         1.114557
 H         3.274264        -2.528663        -1.766634
 H         4.204743         0.212502        -0.629107
 H         4.071539        -0.320355        -2.397369
 H         1.674386         0.406876        -2.972247
