19
Iteration:  2388
 C         0.029960        -0.003315         0.036953
 C         1.545849        -0.021462        -0.026608
 O         1.993765         1.354216         0.245364
 C         2.060619        -1.010658         1.083898
 C         2.936459        -1.894607         0.562375
 C         3.135097        -1.754496        -1.027505
 C         3.678438        -0.454831        -1.472701
 C         2.191832        -0.601273        -1.261638
 O         1.376389        -0.558211        -2.465262
 H        -0.493544         0.892836        -0.126797
 H        -0.341020        -0.796717        -0.673500
 H        -0.226185        -0.376732         1.045956
 H         2.922302         1.360576         0.055146
 H         1.897162        -0.832228         2.232830
 H         3.411191        -2.769038         1.143033
 H         3.130426        -2.614108        -1.642989
 H         4.354235         0.086169        -0.697411
 H         4.022287        -0.332684        -2.494113
 H         1.570407         0.338998        -2.844970
