19
Iteration:  4039charge 0 multiplicity 1
 C        -0.014686         0.223661         0.048027
 C         1.475817        -0.020479         0.029819
 O         1.958366         1.229099         0.529688
 C         2.029004        -1.077763         1.004903
 C         3.022519        -1.871190         0.448311
 C         3.247509        -1.598608        -0.951751
 C         3.638703        -0.266381        -1.494412
 C         2.162072        -0.632233        -1.368800
 O         1.427596        -0.855481        -2.591665
 H        -0.336870         0.646570        -0.856012
 H        -0.459498        -0.867133         0.052799
 H        -0.257967         0.791106         0.919253
 H         2.822094         1.382128         0.211906
 H         1.841300        -1.066222         2.101446
 H         3.292480        -2.747012         1.084770
 H         3.477457        -2.475799        -1.580160
 H         4.233056         0.294187        -0.880998
 H         4.109180        -0.220738        -2.431736
 H         1.481465        -0.005329        -3.001709
