19
Iteration:   543
 C         0.045521        -0.111100        -0.155837
 C         1.600592         0.073289        -0.039468
 O         1.923422         1.371094         0.441063
 C         2.168929        -0.885979         1.093210
 C         2.814465        -1.983493         0.615621
 C         3.076946        -1.828170        -0.989367
 C         3.767078        -0.470566        -1.342345
 C         2.241249        -0.571081        -1.336789
 O         1.423058        -0.455054        -2.560572
 H        -0.516426         0.344461         0.717962
 H        -0.299154         0.340738        -1.121470
 H        -0.155250        -1.154436        -0.314680
 H         2.116299         1.867242        -0.420926
 H         1.932716        -0.703191         2.095350
 H         2.909676        -2.892667         1.158823
 H         3.201747        -2.704883        -1.623237
 H         4.182094         0.274805        -0.614575
 H         4.351129        -0.450723        -2.256237
 H         1.273358        -1.435232        -2.624530
