19
Iteration:    43
 C         0.032093        -0.062119         0.039835
 C         1.566071        -0.010514        -0.022148
 O         1.890255         1.307814         0.422304
 C         2.126287        -0.909258         1.016570
 C         2.871920        -1.879864         0.487413
 C         3.071885        -1.761400        -1.006333
 C         3.672573        -0.460516        -1.417402
 C         2.206101        -0.583850        -1.301620
 O         1.544833        -0.509591        -2.519895
 H        -0.323009         0.739420         0.647495
 H        -0.477923         0.135113        -0.890786
 H        -0.329261        -0.961069         0.635775
 H         2.552512         1.653201        -0.224275
 H         1.728852        -0.957055         2.021347
 H         3.253183        -2.660230         1.119279
 H         2.921756        -2.599610        -1.654207
 H         4.295238         0.119753        -0.754463
 H         4.042608        -0.379706        -2.428440
 H         1.925856        -1.039263        -3.242723
