19
Iteration:  3748charge 0 multiplicity 1
 C         0.056875         0.012376        -0.067168
 C         1.565920        -0.067533        -0.008925
 O         2.010776         1.266544         0.222688
 C         2.000320        -0.992854         1.034186
 C         2.958351        -1.904408         0.478147
 C         3.208505        -1.652703        -0.940390
 C         3.679169        -0.257877        -1.415407
 C         2.235842        -0.630143        -1.293080
 O         1.342454        -0.686212        -2.424997
 H        -0.205018         0.748494        -0.761184
 H        -0.242625        -1.025904        -0.362787
 H        -0.228352         0.368089         0.931748
 H         2.196698         1.336583         1.127822
 H         1.542502        -1.050660         2.071061
 H         3.225726        -2.861647         0.906166
 H         3.537441        -2.487571        -1.531767
 H         4.107659         0.398147        -0.636016
 H         4.066614        -0.195715        -2.431761
 H         1.005178         0.201469        -2.315375
