19
Iteration:  2899charge 0 multiplicity 1
 C        -0.001882        -0.062867         0.160138
 C         1.481653        -0.037547         0.039016
 O         1.939937         1.395191         0.219686
 C         2.144364        -0.984745         1.056883
 C         2.906270        -1.934826         0.419680
 C         3.107382        -1.723233        -1.014969
 C         3.695836        -0.370519        -1.263111
 C         2.197202        -0.567646        -1.349866
 O         1.479059        -0.654115        -2.556197
 H        -0.502165         0.673122        -0.462373
 H        -0.332113        -1.122902         0.000502
 H        -0.159307         0.196642         1.176637
 H         2.701109         1.417950        -0.474558
 H         1.979220        -0.809691         2.157331
 H         3.413029        -2.772829         0.893579
 H         3.325294        -2.496216        -1.674079
 H         4.184058         0.110346        -0.432059
 H         4.288684        -0.253630        -2.238674
 H         1.139338         0.180018        -2.921216
