19
Iteration:  1187charge 0 multiplicity 1
 C        -0.013616        -0.012766        -0.139543
 C         1.535076        -0.073789         0.041721
 O         1.926346         1.372108         0.251762
 C         2.081649        -1.054179         1.095176
 C         2.925907        -1.903287         0.517613
 C         3.064815        -1.796089        -0.906689
 C         3.738877        -0.430392        -1.316220
 C         2.209760        -0.575222        -1.273565
 O         1.483006        -0.507340        -2.527872
 H        -0.262055         0.362293        -1.143936
 H        -0.249181        -1.045456        -0.221298
 H        -0.424899         0.607939         0.714889
 H         2.845411         1.382186         0.062466
 H         1.943231        -1.113475         2.139906
 H         3.425664        -2.657540         1.032756
 H         3.177576        -2.672568        -1.541523
 H         4.366613         0.083534        -0.596929
 H         3.991392        -0.269698        -2.360933
 H         1.237729         0.440497        -2.670179
