19
Iteration:  1366charge 0 multiplicity 1
 C         0.061422        -0.018829         0.138693
 C         1.640925         0.001302        -0.014625
 O         1.924581         1.377114         0.144692
 C         2.111340        -0.997687         1.030810
 C         2.808843        -2.003302         0.512147
 C         2.980500        -1.795208        -1.011205
 C         3.781123        -0.439072        -1.190343
 C         2.222552        -0.574903        -1.368299
 O         1.513577        -0.551548        -2.601846
 H        -0.461171         0.781982        -0.453471
 H        -0.250879        -1.095408        -0.073956
 H        -0.228633         0.141723         1.173468
 H         1.147258         1.711466         0.629427
 H         1.925106        -0.931853         2.055232
 H         3.444995        -2.599588         1.102795
 H         3.298014        -2.549578        -1.746370
 H         4.311569         0.029335        -0.306186
 H         4.185087        -0.394470        -2.264443
 H         1.457420         0.431612        -2.765126
