19
Iteration:  1950
 C         0.044966         0.017169         0.233987
 C         1.542867        -0.044906        -0.047024
 O         1.837204         1.348410         0.242650
 C         2.133211        -0.965064         1.043501
 C         2.889022        -1.961791         0.477536
 C         3.015490        -1.746415        -0.929053
 C         3.830557        -0.519154        -1.350899
 C         2.206208        -0.551853        -1.362182
 O         1.443716        -0.517490        -2.585390
 H        -0.533059         0.843959        -0.282783
 H        -0.272329        -1.060454         0.073622
 H         0.053427         0.318944         1.301703
 H         2.557311         1.633925        -0.254432
 H         1.950343        -0.789996         2.051217
 H         3.411937        -2.822787         1.004776
 H         2.988429        -2.537460        -1.692142
 H         4.394352        -0.200466        -0.519546
 H         4.218915        -0.543075        -2.461785
 H         1.892630        -0.065933        -3.312265
