19
Iteration:  3793charge 0 multiplicity 1
 C        -0.012670        -0.110187         0.053100
 C         1.538818        -0.045167         0.016218
 O         2.025707         1.333287         0.278636
 C         2.154729        -0.901868         1.081976
 C         2.952426        -1.817956         0.437639
 C         2.966846        -1.755797        -1.037530
 C         3.764883        -0.413114        -1.334931
 C         2.133540        -0.576627        -1.321179
 O         1.510067        -0.657421        -2.527399
 H        -0.444717         0.899344        -0.141078
 H        -0.317187        -0.792437        -0.675352
 H        -0.305147        -0.393569         1.108443
 H         1.357734         1.797512         0.695685
 H         1.912119        -0.940637         2.087360
 H         3.507093        -2.539609         1.087519
 H         2.935926        -2.641726        -1.679953
 H         4.294442         0.116552        -0.554427
 H         4.001795        -0.251376        -2.490571
 H         1.625753         0.180946        -2.988444
