19
Iteration:   393charge 0 multiplicity 1
 C         0.115880        -0.154761        -0.058146
 C         1.573911         0.041853         0.006802
 O         1.748740         1.448304         0.361308
 C         2.117946        -0.912408         1.016036
 C         2.829324        -1.901601         0.540875
 C         3.112055        -1.816345        -0.851768
 C         3.777579        -0.574417        -1.408096
 C         2.276412        -0.506553        -1.350945
 O         1.447312        -0.479119        -2.530233
 H        -0.426544        -0.096716         0.923793
 H        -0.334202         0.702416        -0.603286
 H        -0.115224        -1.096316        -0.484059
 H         2.673479         1.558921         0.252501
 H         1.708894        -1.000158         2.022511
 H         2.931636        -2.887878         0.944367
 H         3.159086        -2.616035        -1.551631
 H         4.452690        -0.071421        -0.695384
 H         4.184959        -0.718908        -2.346248
 H         2.096708        -0.569742        -3.274308
