19
Iteration:  4756charge 0 multiplicity 1
 C         0.151877        -0.275315         0.100262
 C         1.661381         0.038383         0.076596
 O         1.601024         1.456239         0.327943
 C         2.308365        -0.873074         0.968464
 C         2.888572        -1.993005         0.412342
 C         2.891891        -1.886990        -1.029021
 C         3.768377        -0.609690        -1.476703
 C         2.309683        -0.559821        -1.331605
 O         1.519950        -0.225835        -2.498962
 H         0.167058        -1.267273         0.517868
 H        -0.258168         0.393204         0.861472
 H        -0.418613        -0.178130        -0.773637
 H         2.463350         1.914848         0.267706
 H         1.974646        -0.870440         2.071557
 H         3.195432        -2.888535         1.078811
 H         2.797070        -2.845900        -1.561670
 H         4.504306        -0.329072        -0.638937
 H         4.302875        -0.979418        -2.378988
 H         0.685639         0.103683        -2.144237
