19
Iteration:   395
 C         0.115686        -0.157917        -0.049982
 C         1.581488         0.041422        -0.013689
 O         1.752738         1.461433         0.360138
 C         2.117827        -0.928878         1.027632
 C         2.831255        -1.922808         0.552649
 C         3.099326        -1.806312        -0.853991
 C         3.781227        -0.562397        -1.409535
 C         2.262580        -0.508653        -1.345434
 O         1.457795        -0.485422        -2.523528
 H        -0.422957        -0.127342         0.871407
 H        -0.351035         0.675745        -0.561760
 H        -0.157813        -1.083561        -0.578508
 H         2.674582         1.712416         0.245955
 H         1.728410        -0.965438         1.997848
 H         2.886335        -2.909164         0.944264
 H         3.165832        -2.639863        -1.561329
 H         4.485033        -0.046046        -0.736020
 H         4.192912        -0.716165        -2.385743
 H         2.063784        -0.550804        -3.289331
