19
Iteration:  4060charge 0 multiplicity 1
 C        -0.024981         0.078843        -0.087708
 C         1.505653        -0.116010         0.063480
 O         2.075811         1.269500         0.414385
 C         2.064638        -1.095189         1.098526
 C         3.002867        -1.942014         0.502581
 C         3.093699        -1.621111        -0.971112
 C         3.622365        -0.208117        -1.455844
 C         2.168211        -0.518921        -1.319434
 O         1.430081        -0.752849        -2.509448
 H        -0.316218         0.086246        -1.086104
 H        -0.682249        -0.851048         0.272067
 H        -0.263947         0.927690         0.461140
 H         2.931590         1.320935        -0.066065
 H         1.750888        -1.154738         2.151930
 H         3.745060        -2.632585         1.048721
 H         3.187247        -2.503679        -1.640992
 H         4.085588         0.541561        -0.919697
 H         4.161050        -0.189727        -2.374203
 H         1.231026         0.055895        -3.065131
