19
Iteration:   603charge 0 multiplicity 1
 C        -0.103048         0.053597         0.036684
 C         1.460512        -0.058474        -0.021254
 O         2.032304         1.236236         0.183761
 C         2.044941        -1.003531         0.994714
 C         2.937593        -1.884431         0.539174
 C         3.145765        -1.777139        -0.888857
 C         3.760384        -0.447531        -1.265406
 C         2.176822        -0.668841        -1.380662
 O         1.629953        -0.446322        -2.573135
 H        -0.610175         0.733677         0.688576
 H        -0.536389         0.403664        -0.898230
 H        -0.715795        -0.874827         0.369473
 H         1.348341         1.760301         0.764495
 H         1.836076        -0.648721         2.032198
 H         3.740330        -2.359869         1.108935
 H         3.342071        -2.598801        -1.553791
 H         4.205297         0.311051        -0.537514
 H         4.192294        -0.608630        -2.203767
 H         0.658944        -0.519458        -2.508435
