19
Iteration:  1157charge 0 multiplicity 1
 C        -0.029682         0.004728        -0.056506
 C         1.520530        -0.090861        -0.032612
 O         1.802203         1.301439         0.410780
 C         2.076642        -0.935183         1.037664
 C         2.912484        -1.814573         0.520060
 C         3.071460        -1.783182        -0.887228
 C         3.722956        -0.606458        -1.505649
 C         2.304509        -0.488238        -1.314434
 O         1.564301        -0.522438        -2.518755
 H        -0.359322         0.837438        -0.695111
 H        -0.358061        -1.018977        -0.374524
 H        -0.365872         0.253404         0.925485
 H         2.521842         1.389391         1.080459
 H         1.944806        -0.842522         2.098788
 H         3.517811        -2.394728         1.180783
 H         2.854171        -2.656255        -1.507315
 H         4.425031         0.088193        -1.061864
 H         4.146042        -0.698984        -2.585425
 H         1.971068        -0.050233        -3.250135
