19
Iteration:  3435
 C        -0.022566         0.054091        -0.010394
 C         1.520236        -0.040070         0.033182
 O         1.940298         1.311539         0.392409
 C         2.112305        -1.004485         0.974332
 C         3.065944        -1.873497         0.499755
 C         3.130573        -1.753372        -0.971113
 C         3.679945        -0.343638        -1.476256
 C         2.216044        -0.552208        -1.382525
 O         1.377953        -0.726261        -2.490794
 H        -0.398660         1.107462        -0.565880
 H        -0.563283        -0.696793        -0.511600
 H        -0.466964         0.079098         1.039411
 H         2.021449         1.277309         1.348147
 H         2.006585        -0.895719         2.023148
 H         3.708987        -2.393548         1.242544
 H         3.354740        -2.626142        -1.712122
 H         4.188633         0.192945        -0.715438
 H         4.257957        -0.593273        -2.437251
 H         1.481420         0.140197        -2.928197
