19
Iteration:  3226charge 0 multiplicity 1
 C        -0.044154        -0.103135         0.074374
 C         1.474585        -0.020802         0.001803
 O         1.891063         1.333291         0.314266
 C         2.235957        -0.910024         1.041634
 C         3.018103        -1.851066         0.553711
 C         2.972954        -1.788196        -0.951955
 C         3.782782        -0.568124        -1.450623
 C         2.238811        -0.578706        -1.347058
 O         1.494517        -0.501903        -2.610690
 H        -0.744777         0.614672        -0.490939
 H        -0.384821        -1.117908         0.001050
 H        -0.111199         0.089272         1.145569
 H         1.056317         1.777574         0.584649
 H         2.119439        -0.634062         2.086283
 H         3.652428        -2.415447         1.154684
 H         3.076051        -2.772651        -1.423858
 H         4.336109         0.030078        -0.768971
 H         4.082297        -0.632211        -2.523328
 H         1.719622         0.402353        -2.876301
