19
Iteration:  4362charge 0 multiplicity 1
 C        -0.086027        -0.081822        -0.000884
 C         1.486837        -0.044350         0.025248
 O         1.979395         1.355234         0.406146
 C         2.157064        -1.021168         1.047985
 C         3.077393        -1.869323         0.458522
 C         2.978733        -1.750683        -1.005244
 C         3.697830        -0.439180        -1.529586
 C         2.250909        -0.475064        -1.310886
 O         1.473937        -0.579686        -2.513228
 H        -0.254856        -0.859917        -0.714361
 H        -0.595285        -0.530581         1.033870
 H        -0.398798         0.914188        -0.300122
 H         2.356824         1.215163         1.225173
 H         2.079817        -0.923533         2.161542
 H         3.630256        -2.662347         0.969721
 H         2.965884        -2.643837        -1.661579
 H         4.287461         0.103848        -0.852594
 H         4.017686        -0.348414        -2.557648
 H         1.022841         0.313531        -2.599743
