19
Iteration:  4880
 C        -0.106047        -0.079539        -0.006175
 C         1.520007        -0.008069        -0.023613
 O         2.074905         1.370968         0.478319
 C         2.106542        -1.008820         0.981923
 C         3.020429        -1.889517         0.412520
 C         3.080909        -1.674586        -0.993649
 C         3.684412        -0.379696        -1.457309
 C         2.224279        -0.497665        -1.325021
 O         1.375664        -0.686229        -2.429080
 H        -0.424279        -0.361669        -0.977674
 H        -0.325433        -0.841470         0.637975
 H        -0.571673         0.842717         0.350556
 H         2.972705         1.251242         0.541508
 H         1.821597        -1.156788         2.078775
 H         3.413747        -2.730286         0.971068
 H         3.052218        -2.467245        -1.695847
 H         4.101383         0.371775        -0.789081
 H         3.932460        -0.392660        -2.516630
 H         1.566757        -0.208391        -3.228086
