19
Iteration:  1888
 C         0.080653        -0.140289        -0.106411
 C         1.598070        -0.052467        -0.050883
 O         1.925111         1.355604         0.264311
 C         2.255734        -0.854624         1.110167
 C         2.904032        -1.876259         0.518478
 C         2.947410        -1.794818        -0.941429
 C         3.741023        -0.613120        -1.434047
 C         2.218508        -0.553965        -1.319138
 O         1.353404        -0.423852        -2.427224
 H        -0.214175         0.508686        -0.953744
 H        -0.293295        -1.061887        -0.447726
 H        -0.443445         0.064219         0.848044
 H         2.700432         1.390458         0.765811
 H         1.887325        -0.918061         2.123810
 H         3.633181        -2.447106         1.082206
 H         2.815977        -2.677925        -1.547357
 H         4.268546        -0.102030        -0.670912
 H         4.353729        -0.701925        -2.378572
 H         1.001538         0.474502        -2.322377
