19
Iteration:  3862
 C         0.157769        -0.439586        -0.080393
 C         1.602194         0.029874        -0.015746
 O         1.900465         1.407475         0.184480
 C         2.278927        -0.845247         1.027820
 C         2.891143        -1.877869         0.520592
 C         2.818205        -1.862660        -1.003349
 C         3.729762        -0.601495        -1.404940
 C         2.261703        -0.493166        -1.198174
 O         1.446407        -0.294594        -2.348578
 H        -0.468715        -0.468642        -1.018616
 H         0.114936        -1.425912         0.314425
 H        -0.464771         0.107374         0.632001
 H         1.121926         1.937313         0.179367
 H         2.347725        -0.642758         2.154565
 H         3.394408        -2.634085         1.077547
 H         2.702112        -2.595136        -1.794922
 H         4.466375        -0.126677        -0.662533
 H         3.782891        -0.606208        -2.480485
 H         1.696096         0.546644        -2.706441
