19
Iteration:  4760charge 0 multiplicity 1
 C         0.147214        -0.290439         0.088988
 C         1.679742         0.043301         0.037196
 O         1.610620         1.468277         0.337757
 C         2.291574        -0.899133         0.988249
 C         2.862612        -2.007387         0.424722
 C         2.922166        -1.873412        -0.974850
 C         3.763115        -0.614783        -1.498946
 C         2.265097        -0.566986        -1.354870
 O         1.536805        -0.223393        -2.472621
 H         0.069307        -1.320497         0.521389
 H        -0.241523         0.318686         0.861822
 H        -0.523470        -0.087545        -0.833169
 H         2.519135         1.949498         0.218076
 H         2.184043        -0.872864         2.026558
 H         3.281767        -2.791484         1.031266
 H         2.879267        -2.777851        -1.655080
 H         4.451048        -0.243409        -0.728477
 H         4.245800        -0.976812        -2.416360
 H         0.707819         0.213198        -2.182678
