19
Iteration:  1974charge 0 multiplicity 1
 C        -0.019477        -0.050189         0.259228
 C         1.516805        -0.040555        -0.005663
 O         1.937730         1.371484         0.083242
 C         2.150488        -1.014457         1.006142
 C         2.946678        -1.932110         0.487810
 C         2.998447        -1.856200        -0.979131
 C         3.658681        -0.430890        -1.325470
 C         2.178065        -0.596472        -1.341128
 O         1.497003        -0.407452        -2.492795
 H        -0.337753         0.834190        -0.397321
 H        -0.493893        -0.944035        -0.092326
 H        -0.243070         0.289117         1.338667
 H         2.951094         1.356771         0.148752
 H         2.136161        -0.705231         2.073769
 H         3.394001        -2.763250         1.067654
 H         3.268464        -2.633036        -1.655951
 H         4.087995        -0.063707        -0.380419
 H         4.181523        -0.302219        -2.281067
 H         2.047983        -0.631054        -3.280918
