19
Iteration:  1510charge 0 multiplicity 1
 C        -0.024359        -0.146442         0.131102
 C         1.459207        -0.027401        -0.022195
 O         2.010039         1.293904         0.324351
 C         2.156804        -0.875701         0.992000
 C         2.890001        -1.888012         0.527595
 C         2.981493        -1.826215        -0.957454
 C         3.814151        -0.543587        -1.359495
 C         2.148042        -0.664988        -1.326793
 O         1.526289        -0.375994        -2.596464
 H        -0.426772         0.675989        -0.468322
 H        -0.278076        -1.013539        -0.348538
 H        -0.319764         0.136379         1.150751
 H         1.838611         1.950069        -0.462122
 H         2.008203        -0.509006         2.076648
 H         3.243410        -2.686820         1.232302
 H         3.165760        -2.674403        -1.612983
 H         4.492149        -0.087265        -0.586569
 H         4.002631        -0.547049        -2.371780
 H         1.705512         0.538662        -2.855666
