19
Iteration:  1168charge 0 multiplicity 1
 C        -0.051735         0.015445        -0.074860
 C         1.522609        -0.005711         0.009182
 O         1.834213         1.386186         0.356680
 C         2.039533        -1.036416         1.049202
 C         3.047755        -1.874320         0.602447
 C         3.075252        -1.777360        -0.949234
 C         3.738060        -0.558093        -1.501301
 C         2.202539        -0.565112        -1.294300
 O         1.553857        -0.518722        -2.521210
 H        -0.382516         0.624324        -0.923744
 H        -0.491504        -1.003389        -0.308014
 H        -0.411798         0.336914         0.866609
 H         2.638875         1.306216         0.804648
 H         1.599835        -0.935619         2.041293
 H         3.664943        -2.590326         1.138753
 H         2.965491        -2.641730        -1.621349
 H         4.284037        -0.083713        -0.709969
 H         4.110258        -0.685441        -2.589552
 H         2.035790         0.221505        -2.941209
