19
Iteration:  4652charge 0 multiplicity 1
 C         0.035920         0.022514         0.009601
 C         1.518750        -0.044986         0.053892
 O         1.950629         1.320284         0.361683
 C         2.082338        -1.034526         1.045878
 C         2.948510        -1.956908         0.391431
 C         3.195273        -1.699893        -1.018160
 C         3.644166        -0.358546        -1.485436
 C         2.232252        -0.545093        -1.262105
 O         1.428406        -0.582194        -2.416017
 H        -0.305926        -0.835595        -0.656715
 H        -0.259453         0.023752         1.061766
 H        -0.198251         1.030057        -0.581249
 H         2.903527         1.547821         0.003605
 H         1.802059        -1.180106         2.082588
 H         3.387684        -2.893288         0.849293
 H         2.954062        -2.485710        -1.835511
 H         4.354173         0.179354        -0.828361
 H         4.033892        -0.371580        -2.481067
 H         0.493696        -0.606459        -2.342554
