19
Iteration:    44
 C         0.038446        -0.065380         0.034872
 C         1.564064        -0.017622        -0.016342
 O         1.895374         1.312323         0.418910
 C         2.122096        -0.907322         1.026409
 C         2.866277        -1.893756         0.482906
 C         3.077533        -1.761642        -1.005554
 C         3.661234        -0.458866        -1.424381
 C         2.210472        -0.579722        -1.290985
 O         1.546351        -0.509737        -2.521923
 H        -0.298694         0.765149         0.646111
 H        -0.475396         0.119138        -0.897815
 H        -0.333450        -0.934654         0.601454
 H         2.485138         1.663134        -0.242929
 H         1.750646        -0.948335         2.015220
 H         3.280051        -2.635657         1.127659
 H         2.913247        -2.594092        -1.657596
 H         4.296457         0.137023        -0.753267
 H         3.995560        -0.376663        -2.419056
 H         1.952011        -1.013692        -3.231143
