19
Iteration:   382charge 0 multiplicity 1
 C         0.024497        -0.129305        -0.080016
 C         1.544071         0.030805         0.034001
 O         1.784447         1.341544         0.337056
 C         2.102164        -0.858508         1.071691
 C         2.836217        -1.891291         0.520212
 C         3.102005        -1.819798        -0.978652
 C         3.793703        -0.593957        -1.390966
 C         2.300710        -0.518032        -1.341470
 O         1.459844        -0.439379        -2.517825
 H        -0.213379         0.177757         0.980279
 H        -0.335153         0.430180        -0.976549
 H        -0.179908        -1.141731        -0.237407
 H         2.758890         1.428078         0.577604
 H         1.718555        -0.758933         2.121415
 H         3.369284        -2.480980         1.281632
 H         3.067599        -2.788564        -1.424903
 H         4.266953         0.050484        -0.630439
 H         4.299814        -0.586555        -2.285006
 H         2.001616        -0.587781        -3.315910
