19
Iteration:  1451charge 0 multiplicity 1
 C         0.130466        -0.111129        -0.238997
 C         1.612880         0.056762        -0.014961
 O         1.944614         1.368934         0.518290
 C         2.189448        -0.905921         1.074330
 C         2.745193        -1.959551         0.511255
 C         3.092328        -1.826528        -0.912028
 C         3.713726        -0.551709        -1.506095
 C         2.262911        -0.498428        -1.359491
 O         1.377322        -0.522517        -2.385061
 H        -0.103242         0.577124        -1.096287
 H        -0.288023        -1.173098        -0.459125
 H        -0.410039         0.102449         0.674204
 H         1.261951         2.005570         0.349351
 H         2.259645        -0.842172         2.111856
 H         3.274045        -2.690109         1.060197
 H         3.117433        -2.657966        -1.621553
 H         4.327504         0.085897        -0.890068
 H         4.183958        -0.681354        -2.550369
 H         1.379197         0.096170        -3.125798
