19
Iteration:  4844charge 0 multiplicity 1
 C         0.051907        -0.025108         0.071441
 C         1.601823        -0.137734         0.049557
 O         1.831466         1.321514         0.283882
 C         2.223293        -1.006189         1.108060
 C         2.920307        -1.947219         0.423732
 C         3.066461        -1.707079        -0.970037
 C         3.697248        -0.414864        -1.435377
 C         2.235641        -0.553607        -1.362848
 O         1.385800        -0.500471        -2.450850
 H        -0.516729        -0.374814        -0.823093
 H        -0.273713        -0.609995         0.900702
 H        -0.303169         0.973912         0.301313
 H         2.724635         1.384072         0.391772
 H         1.822418        -0.902104         2.045448
 H         3.282912        -2.913616         0.726085
 H         3.317156        -2.497892        -1.727002
 H         4.120213         0.488304        -0.847614
 H         4.178334        -0.381433        -2.474737
 H         1.719275         0.002799        -3.213797
