19
Iteration:   644
 C         0.030043        -0.130230        -0.071405
 C         1.572549         0.028703         0.040914
 O         1.965384         1.403349         0.163979
 C         2.116585        -0.933843         1.061709
 C         2.737484        -1.958557         0.518467
 C         3.013092        -1.703818        -0.927338
 C         3.773686        -0.428953        -1.371570
 C         2.229636        -0.529512        -1.221306
 O         1.556213        -0.541322        -2.513331
 H        -0.553218        -0.322302         0.866011
 H        -0.337244         0.785636        -0.588929
 H        -0.111439        -1.065610        -0.730838
 H         2.317333         1.625477         0.989023
 H         1.806982        -0.997703         2.154052
 H         2.995134        -2.887443         1.070349
 H         3.176159        -2.501114        -1.667083
 H         4.205258         0.289572        -0.669478
 H         4.201254        -0.536419        -2.324694
 H         1.396453        -1.487119        -2.651433
