19
Iteration:    25
 C        -0.051205        -0.083089         0.092415
 C         1.490530        -0.008438        -0.030373
 O         1.908789         1.382161         0.349009
 C         2.077605        -0.958440         0.990450
 C         2.968318        -1.900869         0.503142
 C         3.029984        -1.746525        -0.959126
 C         3.855276        -0.511081        -1.378503
 C         2.274869        -0.509134        -1.374273
 O         1.404949        -0.476252        -2.594691
 H        -0.368388         0.665028         0.899111
 H        -0.595312         0.116743        -0.862606
 H        -0.332061        -1.048584         0.348416
 H         2.768562         1.176455         0.806193
 H         1.904419        -0.714841         1.998735
 H         3.511208        -2.667995         1.075158
 H         3.246713        -2.660729        -1.531823
 H         4.355190        -0.035260        -0.462101
 H         4.394923        -0.503592        -2.282226
 H         1.457679        -1.389570        -2.974166
