19
Iteration:   427
 C         0.089909        -0.190572        -0.093974
 C         1.524529         0.009910         0.049817
 O         1.837041         1.384023         0.197086
 C         2.156381        -0.905880         1.098306
 C         2.795790        -1.950711         0.498944
 C         2.986838        -1.794607        -0.922933
 C         3.775154        -0.472041        -1.379429
 C         2.242702        -0.488582        -1.222700
 O         1.535839        -0.520970        -2.436303
 H        -0.429075        -0.701997         0.693883
 H        -0.389637         0.776704        -0.272808
 H        -0.126663        -0.580258        -1.079905
 H         2.668149         1.642613        -0.266730
 H         2.074029        -0.846278         2.140295
 H         3.193546        -2.720600         1.114244
 H         2.881863        -2.680440        -1.570762
 H         4.477059        -0.101386        -0.643293
 H         4.226297        -0.496731        -2.334165
 H         1.711261         0.218912        -3.064847
