19
Iteration:  4997charge 0 multiplicity 1
 C         0.074819        -0.313667         0.074497
 C         1.598452         0.038112         0.026053
 O         1.802834         1.480387         0.223254
 C         2.417654        -0.870833         1.135953
 C         2.827605        -1.958853         0.524584
 C         2.884779        -1.816530        -0.980329
 C         3.669148        -0.449375        -1.493914
 C         2.228189        -0.569320        -1.254916
 O         1.458658        -0.437396        -2.538468
 H        -0.594999         0.582307        -0.195710
 H        -0.159921        -1.127471        -0.602496
 H        -0.138981        -0.784099         1.121344
 H         2.684417         1.687466         0.084880
 H         2.174566        -0.841275         2.215782
 H         3.126761        -2.864817         1.041617
 H         2.984378        -2.668143        -1.578750
 H         4.329080        -0.114539        -0.618632
 H         4.075408        -0.551457        -2.524592
 H         2.032955         0.099690        -3.067613
