19
Iteration:  2927
 C         0.107463        -0.199709        -0.020435
 C         1.630811         0.032797        -0.018829
 O         1.868733         1.474810         0.347031
 C         2.151427        -0.955126         1.036433
 C         2.793341        -2.001712         0.477267
 C         3.055929        -1.705646        -0.924565
 C         3.785232        -0.382722        -1.459649
 C         2.279714        -0.541010        -1.304134
 O         1.395975        -0.664120        -2.435602
 H        -0.547762         0.580884        -0.434258
 H        -0.100116        -1.204492        -0.515366
 H        -0.101982        -0.120846         1.102165
 H         2.486362         1.848229        -0.379894
 H         1.926863        -0.649682         2.056774
 H         3.065039        -2.968408         0.907839
 H         2.943618        -2.564896        -1.627475
 H         4.340991         0.177134        -0.730050
 H         4.218568        -0.422618        -2.464978
 H         1.000435         0.197438        -2.707064
