19
Iteration:  2963
 C         0.035429        -0.199787        -0.162718
 C         1.510779        -0.011527         0.027169
 O         1.795401         1.424825         0.360742
 C         2.252427        -0.879548         1.108697
 C         3.091855        -1.814583         0.558478
 C         2.962293        -1.797878        -0.967039
 C         3.739636        -0.592852        -1.533627
 C         2.188412        -0.585657        -1.274600
 O         1.428283        -0.461658        -2.450456
 H        -0.296436         0.475129        -0.934556
 H        -0.286988        -1.284086        -0.401148
 H        -0.513007        -0.113042         0.753932
 H         2.804345         1.380022         0.496276
 H         2.053272        -0.778008         2.201442
 H         3.537047        -2.713145         0.987591
 H         2.663269        -2.708317        -1.391379
 H         4.501325        -0.199904        -0.847335
 H         3.996669        -0.545114        -2.613752
 H         1.698803         0.472533        -2.670997
