19
Iteration:  1133
 C         0.000675        -0.122903        -0.125952
 C         1.590575         0.012525        -0.059294
 O         1.820684         1.413324         0.471466
 C         2.141087        -0.856638         1.058208
 C         2.892621        -1.921102         0.598304
 C         3.000079        -1.756316        -0.940266
 C         3.817036        -0.584319        -1.493201
 C         2.265775        -0.552983        -1.337823
 O         1.436280        -0.528234        -2.535447
 H        -0.435633         0.829014        -0.448624
 H        -0.123840        -0.938395        -0.780507
 H        -0.500854        -0.385209         0.870909
 H         2.595504         1.438523         0.985564
 H         1.789933        -0.669003         2.055164
 H         3.316261        -2.717696         1.166996
 H         3.002647        -2.543259        -1.690270
 H         4.423666        -0.128463        -0.697069
 H         4.438331        -0.668101        -2.360082
 H         1.993715        -0.184773        -3.258593
