19
Iteration:  4931charge 0 multiplicity 1
 C        -0.083752         0.048310        -0.026880
 C         1.480955        -0.063174         0.068325
 O         1.920286         1.338626         0.304243
 C         2.162031        -1.137700         1.052301
 C         3.086323        -1.859493         0.509263
 C         3.191407        -1.782586        -0.991201
 C         3.607739        -0.403423        -1.549876
 C         2.179018        -0.577795        -1.241555
 O         1.441367        -0.534629        -2.466387
 H        -0.398908         0.321537        -1.093250
 H        -0.629298        -0.841984         0.443629
 H        -0.283517         0.987668         0.636890
 H         2.919957         1.305194         0.436379
 H         1.926682        -0.970341         2.101258
 H         3.657470        -2.623508         1.004069
 H         3.655479        -2.561107        -1.611715
 H         4.354924        -0.084115        -0.722092
 H         3.928454        -0.427271        -2.645869
 H         0.709161         0.143788        -2.582327
