19
Iteration:  1122
 C         0.082504        -0.160462        -0.173423
 C         1.585823         0.044493         0.033381
 O         1.837204         1.487944         0.411801
 C         2.154474        -0.962121         1.030296
 C         2.885964        -1.902318         0.515529
 C         3.043823        -1.829936        -0.903664
 C         3.732317        -0.586120        -1.379400
 C         2.253434        -0.488331        -1.371412
 O         1.438204        -0.523398        -2.495123
 H        -0.446909         0.702637        -0.584739
 H        -0.149807        -0.869025        -0.924448
 H        -0.402812        -0.541488         0.783335
 H         2.762220         1.615136         0.643200
 H         1.892922        -0.986588         2.071475
 H         3.298466        -2.663420         1.146877
 H         2.727471        -2.723797        -1.416951
 H         4.102413         0.135108        -0.635703
 H         4.190273        -0.617980        -2.329921
 H         1.869373        -0.051099        -3.214309
