19
Iteration:   386
 C         0.064463        -0.126420        -0.068681
 C         1.560257         0.043912         0.049869
 O         1.757048         1.384578         0.351519
 C         2.101410        -0.859960         1.041542
 C         2.832599        -1.886576         0.509916
 C         3.126044        -1.813745        -0.913256
 C         3.770799        -0.599574        -1.386613
 C         2.308864        -0.508052        -1.349886
 O         1.441482        -0.456279        -2.533383
 H        -0.231979         0.010998         0.933045
 H        -0.277190         0.574943        -0.814360
 H        -0.109928        -1.227269        -0.321646
 H         2.708064         1.324324         0.372722
 H         1.705019        -0.918408         2.007451
 H         3.183389        -2.713398         1.158058
 H         3.100117        -2.769453        -1.509340
 H         4.314203        -0.021276        -0.618808
 H         4.280402        -0.690212        -2.403863
 H         2.080862        -0.596688        -3.268197
