19
Iteration:  4671charge 0 multiplicity 1
 C        -0.031995        -0.055453         0.047897
 C         1.594346        -0.070380         0.022734
 O         1.930845         1.301683         0.269021
 C         2.158965        -1.038590         0.988989
 C         2.967163        -2.015000         0.506867
 C         2.992704        -1.761935        -0.993792
 C         3.756232        -0.404856        -1.444003
 C         2.280542        -0.520546        -1.319266
 O         1.391412        -0.368869        -2.444123
 H        -0.573187        -0.942185        -0.480338
 H        -0.376097        -0.154981         1.036060
 H        -0.478758         0.911707        -0.414625
 H         2.730892         1.552129        -0.296626
 H         2.044568        -0.864976         2.101217
 H         3.491614        -2.701433         1.240421
 H         3.425194        -2.556645        -1.593875
 H         4.321399         0.185837        -0.628589
 H         4.099457        -0.201782        -2.497802
 H         0.657766        -0.939406        -2.162708
