19
Iteration:  3062charge 0 multiplicity 1
 C         0.129184        -0.171324         0.013162
 C         1.628833        -0.034893        -0.000614
 O         1.920025         1.355084         0.226957
 C         2.295104        -0.887718         1.077102
 C         2.835240        -1.938659         0.471484
 C         2.984789        -1.748599        -0.945446
 C         3.751927        -0.397340        -1.354639
 C         2.264103        -0.518910        -1.398108
 O         1.331034        -0.578598        -2.430448
 H        -0.307467         0.670810        -0.647764
 H        -0.276212        -1.204406        -0.305841
 H        -0.302997        -0.251279         0.979178
 H         1.310914         1.968226        -0.209127
 H         2.033324        -1.040011         2.105121
 H         3.036486        -2.856441         1.042987
 H         3.147553        -2.619871        -1.653147
 H         4.254867         0.129310        -0.434508
 H         4.494092        -0.406986        -2.113529
 H         1.042138         0.362759        -2.647283
