19
Iteration:   821charge 0 multiplicity 1
 C        -0.047634        -0.086611        -0.103913
 C         1.462544        -0.038491        -0.044267
 O         1.898356         1.383097         0.302922
 C         2.168500        -0.867508         1.161980
 C         2.982975        -1.821719         0.593984
 C         2.927897        -1.880548        -0.892808
 C         3.695504        -0.662800        -1.320731
 C         2.189313        -0.594410        -1.332965
 O         1.633782        -0.318751        -2.601904
 H        -0.392602         0.227804         0.913830
 H        -0.431084         0.640217        -0.875292
 H        -0.459800        -1.038177        -0.501088
 H         2.593522         1.495812        -0.302320
 H         2.082013        -0.661566         2.234964
 H         3.713856        -2.504666         1.112542
 H         3.005459        -2.912260        -1.309349
 H         4.243201        -0.180012        -0.537712
 H         4.152612        -0.727554        -2.347632
 H         1.541997        -1.122428        -3.119516
