19
Iteration:  3484
 C         0.037831        -0.079540         0.109203
 C         1.516217         0.017395         0.042535
 O         2.017117         1.306196         0.223748
 C         2.061841        -1.008060         1.048772
 C         2.932390        -1.924006         0.501615
 C         3.069262        -1.682724        -0.955451
 C         3.667552        -0.325728        -1.378815
 C         2.145607        -0.552900        -1.319972
 O         1.507881        -0.667084        -2.526815
 H        -0.574381         0.732713        -0.050425
 H        -0.260794        -0.837845        -0.792644
 H        -0.337829        -0.508610         1.061866
 H         2.710115         1.334346        -0.525985
 H         1.919517        -0.762640         2.120744
 H         3.624319        -2.629326         0.992349
 H         3.165369        -2.503332        -1.592275
 H         4.138842         0.331420        -0.569993
 H         3.921666        -0.178439        -2.403345
 H         1.240825         0.263768        -2.747449
