19
Iteration:  4223charge 0 multiplicity 1
 C         0.002639        -0.236067        -0.011329
 C         1.542467        -0.035223         0.000183
 O         1.840501         1.349660         0.215042
 C         2.195319        -0.964008         1.080399
 C         3.040985        -1.901190         0.445726
 C         2.895776        -1.774418        -1.032626
 C         3.803316        -0.570172        -1.403395
 C         2.242458        -0.507773        -1.253395
 O         1.449801        -0.343493        -2.428240
 H        -0.333691        -1.015197         0.603964
 H        -0.565503         0.642285         0.415409
 H        -0.433545        -0.357788        -0.965721
 H         2.743847         1.464111         0.699387
 H         2.124547        -0.967910         2.216464
 H         3.576306        -2.645746         1.022581
 H         2.847881        -2.634998        -1.720774
 H         4.464489        -0.188413        -0.681315
 H         4.040881        -0.360461        -2.428814
 H         1.325261         0.642881        -2.445616
