19
Iteration:   935
 C        -0.006603         0.024809         0.007432
 C         1.486893        -0.059934         0.013646
 O         1.948975         1.351333         0.222086
 C         2.004981        -1.031535         1.064306
 C         2.973007        -1.798709         0.593821
 C         2.986465        -1.839854        -0.937953
 C         3.687931        -0.502738        -1.318875
 C         2.179496        -0.596509        -1.311690
 O         1.614574        -0.541798        -2.598445
 H        -0.233128         1.074509         0.117388
 H        -0.335938        -0.190860        -1.032342
 H        -0.497570        -0.706602         0.666277
 H         2.910705         1.378273         0.254429
 H         1.713150        -0.886198         2.086110
 H         3.701786        -2.415036         1.116395
 H         3.110458        -2.672419        -1.640374
 H         4.227591        -0.031631        -0.542722
 H         4.266152        -0.443217        -2.293943
 H         1.484926         0.396049        -2.823309
