19
Iteration:  2868charge 0 multiplicity 1
 C        -0.046837         0.054538         0.118853
 C         1.456576        -0.161754         0.047953
 O         1.884015         1.265135         0.176370
 C         2.179359        -0.994187         1.088548
 C         3.057587        -1.850761         0.528935
 C         3.115748        -1.809517        -0.993630
 C         3.581440        -0.407990        -1.423276
 C         2.155771        -0.578694        -1.269357
 O         1.540322        -0.489974        -2.556731
 H        -0.330012         0.523856        -0.874550
 H        -0.510798        -0.887440         0.313659
 H        -0.203914         0.628735         0.988849
 H         2.780388         1.138325         0.352167
 H         1.799171        -0.976234         2.129929
 H         3.683196        -2.614255         0.983163
 H         3.285027        -2.649599        -1.609387
 H         4.194986         0.128165        -0.711701
 H         3.938041        -0.312576        -2.501936
 H         1.687840         0.400956        -2.947897
