19
Iteration:  4104
 C        -0.024183        -0.159362         0.006661
 C         1.546015        -0.069484         0.009144
 O         1.813885         1.407257         0.277726
 C         2.184398        -1.003571         1.063173
 C         2.976650        -1.967672         0.533493
 C         3.080169        -1.742625        -0.957922
 C         3.782865        -0.476477        -1.457578
 C         2.256995        -0.577557        -1.336228
 O         1.400994        -0.399680        -2.510527
 H        -0.529703        -0.493777        -0.823137
 H        -0.498852        -0.813872         0.834024
 H        -0.361126         0.803543         0.256899
 H         2.772842         1.431897         0.387336
 H         2.211554        -0.888815         2.119065
 H         3.507543        -2.775366         1.011752
 H         3.083407        -2.561261        -1.615520
 H         4.281234        -0.033470        -0.661632
 H         4.297253        -0.596474        -2.346816
 H         1.270826         0.578084        -2.554461
