19
Iteration:  2552charge 0 multiplicity 1
 C         0.065700        -0.148384         0.192945
 C         1.578477         0.078173        -0.048352
 O         1.846400         1.460943         0.323778
 C         2.199756        -0.889279         0.918878
 C         2.886104        -1.914791         0.500159
 C         2.934181        -1.823767        -0.962108
 C         3.743382        -0.570078        -1.351562
 C         2.174235        -0.570818        -1.365468
 O         1.533337        -0.602041        -2.564498
 H        -0.248259         0.813195        -0.173029
 H        -0.404843        -0.920603        -0.580308
 H        -0.220380        -0.244504         1.248007
 H         2.887806         1.513052         0.289236
 H         1.956720        -0.594670         1.879196
 H         3.255097        -2.524570         1.284211
 H         2.931156        -2.604178        -1.774633
 H         4.387680        -0.138015        -0.586413
 H         4.208494        -0.490750        -2.416439
 H         1.299013         0.321085        -2.719606
