19
Iteration:  1899
 C         0.087898        -0.185202        -0.183428
 C         1.642236        -0.023893         0.093754
 O         1.941315         1.356441         0.256835
 C         2.179844        -0.937090         1.111947
 C         2.985732        -1.879522         0.546775
 C         2.850272        -1.796795        -0.957888
 C         3.712607        -0.596029        -1.440568
 C         2.263482        -0.431064        -1.312359
 O         1.375066        -0.464420        -2.438190
 H        -0.281584         0.444805        -1.022516
 H        -0.130121        -1.208273        -0.237175
 H        -0.466475         0.386318         0.605794
 H         2.874889         1.407510         0.510367
 H         2.116750        -0.600493         2.160820
 H         3.399260        -2.720526         1.086324
 H         2.753092        -2.579710        -1.681021
 H         4.204262        -0.003412        -0.702089
 H         4.207660        -0.612910        -2.445843
 H         0.709348         0.217931        -2.453856
