19
Iteration:  2766charge 0 multiplicity 1
 C         0.078113        -0.131277         0.202381
 C         1.555244        -0.083807         0.029340
 O         1.753805         1.303603         0.154442
 C         2.227256        -0.865449         0.999117
 C         2.887533        -1.864584         0.520759
 C         2.906319        -1.812632        -0.997620
 C         3.808955        -0.582837        -1.403315
 C         2.209194        -0.552912        -1.355574
 O         1.512362        -0.379376        -2.520001
 H        -0.300991         0.827693         0.181886
 H        -0.462465        -0.721282        -0.555177
 H        -0.107075        -0.446870         1.237479
 H         2.779973         1.395304         0.227350
 H         2.061290        -0.811067         2.055377
 H         3.551325        -2.454892         1.197842
 H         3.042678        -2.790347        -1.589039
 H         4.400914        -0.201359        -0.508335
 H         4.255536        -0.605994        -2.350450
 H         1.552298         0.551999        -2.782985
