19
Iteration:  3844charge 0 multiplicity 1
 C         0.117801        -0.304181        -0.052635
 C         1.629262        -0.044568         0.091104
 O         1.852910         1.383932         0.188982
 C         2.237003        -0.902164         1.166619
 C         2.930359        -1.861428         0.544148
 C         2.969544        -1.828313        -0.943461
 C         3.709681        -0.614775        -1.577208
 C         2.210631        -0.532065        -1.280276
 O         1.432706        -0.273159        -2.398344
 H        -0.107648         0.122496        -1.011720
 H        -0.058510        -1.494268        -0.154931
 H        -0.449347         0.184628         0.736652
 H         0.990356         1.814028         0.254587
 H         1.981842        -0.643607         2.179476
 H         3.461003        -2.659497         1.012279
 H         2.778149        -2.757512        -1.490706
 H         4.313807        -0.226863        -0.827478
 H         4.081254        -0.591126        -2.570517
 H         1.904882         0.345441        -2.935401
