19
Iteration:  3977charge 0 multiplicity 1
 C         0.033321        -0.112067        -0.161359
 C         1.591567        -0.034053        -0.000078
 O         2.069370         1.325612         0.263119
 C         2.143098        -0.950906         1.086731
 C         2.975843        -1.944122         0.560154
 C         3.076211        -1.766799        -0.934378
 C         3.599792        -0.278294        -1.489417
 C         2.186450        -0.587420        -1.304622
 O         1.334218        -0.581310        -2.417381
 H        -0.418587         0.904748        -0.115761
 H        -0.180353        -0.657721        -1.095966
 H        -0.577437        -0.714446         0.614516
 H         2.066723         1.358736         1.192392
 H         2.068376        -0.991464         2.178479
 H         3.632172        -2.567837         1.221869
 H         3.428515        -2.590663        -1.499829
 H         4.218127         0.205575        -0.662298
 H         3.879396        -0.291351        -2.543028
 H         1.265632         0.324039        -2.693712
