19
Iteration:  2704
 C         0.127489        -0.162230        -0.003809
 C         1.624742        -0.052964         0.000066
 O         1.827481         1.353977         0.172375
 C         2.240280        -0.933328         1.073452
 C         2.852706        -1.959620         0.536135
 C         2.920855        -1.760083        -0.950853
 C         3.819492        -0.512952        -1.400472
 C         2.244298        -0.508532        -1.340328
 O         1.347782        -0.444723        -2.408786
 H        -0.264304         0.618046        -0.708912
 H        -0.390364        -1.223467        -0.137626
 H        -0.238460         0.076388         0.998018
 H         2.818456         1.554550        -0.023604
 H         2.334632        -0.635727         2.128866
 H         3.218712        -2.910585         1.006354
 H         2.897932        -2.566223        -1.729531
 H         4.445718        -0.001267        -0.560953
 H         4.390303        -0.447828        -2.288911
 H         1.130015         0.471814        -2.655781
