19
Iteration:  3611charge 0 multiplicity 1
 C         0.101987        -0.350544         0.070914
 C         1.610690        -0.057515         0.060482
 O         1.796745         1.458839        -0.008382
 C         2.317175        -0.905541         1.085384
 C         2.836420        -1.996839         0.543247
 C         2.970745        -1.838135        -0.938248
 C         3.709290        -0.542524        -1.284573
 C         2.208301        -0.542503        -1.310216
 O         1.465485        -0.296843        -2.523314
 H        -0.440710         0.441936        -0.632437
 H        -0.202884        -1.279492        -0.347670
 H        -0.485050        -0.220681         1.066200
 H         2.499026         1.828229         0.655701
 H         2.151695        -0.668522         2.140763
 H         3.243506        -2.813515         1.135092
 H         3.216242        -2.579245        -1.643228
 H         4.409938        -0.030421        -0.589240
 H         4.087703        -0.343238        -2.290329
 H         1.379480         0.686634        -2.507105
