19
Iteration:  2678
 C         0.065670        -0.140167        -0.014287
 C         1.622365         0.094349         0.041188
 O         1.816625         1.499018         0.436287
 C         2.183017        -0.909965         1.002068
 C         2.886577        -1.894542         0.443709
 C         2.998547        -1.836168        -1.001478
 C         3.750899        -0.620171        -1.510012
 C         2.233993        -0.509666        -1.317687
 O         1.457872        -0.609853        -2.471131
 H        -0.448702         0.077595        -0.933550
 H        -0.108785        -1.141026         0.298671
 H        -0.319885         0.445189         0.865477
 H         2.730307         1.640808         0.848150
 H         2.102408        -0.856369         2.079757
 H         3.142566        -2.756219         1.024878
 H         2.910626        -2.684125        -1.708074
 H         4.437193        -0.111847        -0.881227
 H         4.067917        -0.475343        -2.601798
 H         1.311905         0.241531        -2.938348
