19
Iteration:  3349
 C        -0.036530        -0.105495         0.255165
 C         1.537896        -0.153528         0.038252
 O         1.850792         1.363008         0.065809
 C         2.244734        -0.995611         1.051687
 C         2.944205        -1.918020         0.440912
 C         3.028843        -1.753140        -1.033498
 C         3.720249        -0.464698        -1.283825
 C         2.219071        -0.570106        -1.324811
 O         1.510670        -0.467192        -2.557594
 H        -0.295642         0.857002        -0.256495
 H        -0.569695        -0.961852         0.034533
 H        -0.128634         0.263740         1.292326
 H         1.207051         1.722438         0.648408
 H         2.159520        -0.807774         2.088023
 H         3.624736        -2.664880         0.947674
 H         3.208203        -2.641411        -1.707219
 H         4.172383         0.103874        -0.468830
 H         4.284368        -0.195753        -2.192968
 H         1.767111         0.318346        -3.040899
