19
Iteration:  1918charge 0 multiplicity 1
 C         0.090926        -0.119202        -0.056077
 C         1.562556         0.060402        -0.018460
 O         1.932664         1.449451         0.341083
 C         2.232073        -0.966564         1.109116
 C         2.829228        -1.967879         0.493368
 C         2.960881        -1.762071        -0.943234
 C         3.677790        -0.518464        -1.475482
 C         2.182343        -0.573032        -1.227875
 O         1.506995        -0.533354        -2.491709
 H        -0.426673         0.271744        -1.006567
 H        -0.049956        -1.243850        -0.066900
 H        -0.530094         0.310308         0.746551
 H         2.871032         1.554597        -0.029016
 H         2.097393        -0.840471         2.143644
 H         3.496639        -2.685143         1.026139
 H         2.834339        -2.612875        -1.628759
 H         4.531089        -0.217090        -0.926970
 H         3.850400        -0.502506        -2.623976
 H         0.975739         0.281203        -2.576657
