19
Iteration:   648charge 0 multiplicity 1
 C         0.047910        -0.127122        -0.094055
 C         1.540536         0.045979         0.047826
 O         1.955542         1.411275         0.163651
 C         2.092644        -0.937100         1.058649
 C         2.736264        -1.972331         0.502057
 C         3.005617        -1.735735        -0.920441
 C         3.816527        -0.435287        -1.397532
 C         2.231533        -0.505885        -1.222347
 O         1.538174        -0.535481        -2.482221
 H        -0.505287        -0.428076         0.765311
 H        -0.494417         0.714978        -0.521289
 H        -0.083399        -1.020903        -0.722790
 H         2.438724         1.594523         1.064516
 H         1.977853        -0.977433         2.102092
 H         2.967457        -2.783866         1.137780
 H         3.279932        -2.505403        -1.599214
 H         4.220129         0.297479        -0.666697
 H         4.269877        -0.560590        -2.404545
 H         1.492729        -1.511968        -2.537668
