19
Iteration:  1931charge 0 multiplicity 1
 C        -0.017568        -0.097133         0.082724
 C         1.598853         0.023401         0.096614
 O         1.904863         1.439644         0.330232
 C         2.193720        -0.889995         1.026914
 C         2.828959        -1.957834         0.497152
 C         3.013718        -1.848515        -1.018691
 C         3.709876        -0.539202        -1.480903
 C         2.234935        -0.538058        -1.318002
 O         1.534181        -0.569275        -2.507717
 H        -0.409362         0.467690        -0.814700
 H        -0.376084        -1.108910         0.040994
 H        -0.306814         0.336054         1.082979
 H         2.647036         1.704655        -0.227303
 H         1.853164        -0.876870         2.072412
 H         3.246449        -2.773620         1.088249
 H         2.976391        -2.668812        -1.712522
 H         4.170590         0.167932        -0.805701
 H         4.061223        -0.578422        -2.520233
 H         1.478979         0.378324        -2.773367
