19
Iteration:  1185charge 0 multiplicity 1
 C        -0.015083        -0.018012        -0.138790
 C         1.517706        -0.053327         0.041523
 O         1.921216         1.382830         0.261065
 C         2.086533        -1.074313         1.084678
 C         2.943633        -1.891154         0.529165
 C         3.049933        -1.802132        -0.906853
 C         3.750762        -0.435493        -1.332067
 C         2.204593        -0.593499        -1.272864
 O         1.484291        -0.504502        -2.535160
 H        -0.280801         0.425113        -1.123624
 H        -0.257399        -1.058419        -0.216376
 H        -0.428476         0.630292         0.716218
 H         2.858377         1.410796         0.143113
 H         1.920110        -1.146249         2.146716
 H         3.436258        -2.676874         1.070153
 H         3.185998        -2.718500        -1.484957
 H         4.452305         0.096090        -0.656309
 H         3.981101        -0.230190        -2.320313
 H         1.297368         0.435029        -2.728111
