19
Iteration:  1485
 C         0.030826        -0.096986        -0.041073
 C         1.555297         0.065877        -0.004675
 O         1.891437         1.363086         0.429923
 C         2.208738        -0.972637         1.127266
 C         2.883547        -1.957998         0.485793
 C         2.893777        -1.777494        -0.952086
 C         3.762230        -0.594955        -1.486103
 C         2.273017        -0.439940        -1.353609
 O         1.547514        -0.551713        -2.497752
 H        -0.441890         0.846661        -0.488079
 H        -0.240027        -1.017588        -0.698622
 H        -0.195454         0.059047         1.019393
 H         1.630645         2.060600        -0.263507
 H         1.935680        -1.064276         2.178707
 H         3.545719        -2.474510         1.135809
 H         2.593217        -2.672782        -1.521800
 H         4.406755        -0.308538        -0.663638
 H         4.040448        -0.532876        -2.618023
 H         1.532459         0.216456        -3.075788
