19
Iteration:  4446charge 0 multiplicity 1
 C         0.028694        -0.375553         0.069486
 C         1.574059        -0.057950         0.017613
 O         1.815540         1.352464         0.173308
 C         2.261962        -0.898716         1.042622
 C         2.943875        -1.968807         0.452575
 C         2.878165        -1.832614        -1.048720
 C         3.776969        -0.513244        -1.411006
 C         2.246309        -0.491631        -1.231161
 O         1.461996        -0.205530        -2.406182
 H        -0.200293        -1.413343         0.281248
 H        -0.325656         0.243096         0.811345
 H        -0.604610        -0.227605        -0.831923
 H         2.760766         1.602139        -0.214272
 H         2.204877        -0.647326         2.160223
 H         3.496229        -2.747840         1.057056
 H         2.848951        -2.639364        -1.795334
 H         4.452083        -0.365851        -0.568691
 H         4.208164        -0.413718        -2.436550
 H         1.306651         0.737525        -2.219843
