19
Iteration:   728
 C        -0.054253        -0.041254        -0.059385
 C         1.459118        -0.016965        -0.019519
 O         1.875129         1.287565         0.220129
 C         2.133436        -0.903512         1.045385
 C         2.976066        -1.791478         0.534374
 C         2.966571        -1.857607        -0.900312
 C         3.706117        -0.543628        -1.313986
 C         2.220899        -0.595910        -1.267983
 O         1.624803        -0.453507        -2.500236
 H        -0.590626         0.452629         0.750569
 H        -0.478620         0.230985        -1.014570
 H        -0.293750        -1.063233        -0.109694
 H         2.877711         1.313804        -0.041864
 H         1.857090        -0.745938         2.118051
 H         3.448291        -2.670523         1.031384
 H         3.071546        -2.734757        -1.570347
 H         4.418030        -0.287095        -0.498057
 H         4.070693        -0.482388        -2.342366
 H         1.836207         0.455270        -2.845429
