19
Iteration:  3933charge 0 multiplicity 1
 C        -0.031864        -0.202479         0.188363
 C         1.490741        -0.003589         0.098216
 O         1.875323         1.400859         0.125979
 C         2.208643        -0.926944         1.092568
 C         2.958459        -1.944521         0.456362
 C         3.006276        -1.821369        -1.063640
 C         3.801871        -0.495194        -1.404412
 C         2.277925        -0.521936        -1.280780
 O         1.471356        -0.404319        -2.528662
 H        -0.781046         0.520791        -0.113129
 H        -0.360987        -1.208023        -0.262066
 H        -0.331900        -0.368172         1.269447
 H         1.195552         1.974137         0.362188
 H         2.120938        -0.855935         2.185867
 H         3.589124        -2.839287         0.890670
 H         3.019511        -2.787089        -1.590967
 H         4.518599        -0.196775        -0.636044
 H         4.084707        -0.606086        -2.470107
 H         1.971084         0.230300        -3.023980
