19
Iteration:  3917charge 0 multiplicity 1
 C         0.029744        -0.249738         0.291263
 C         1.583665        -0.024437        -0.034070
 O         1.786111         1.427249         0.160720
 C         2.241639        -0.935385         0.986301
 C         2.925776        -1.975596         0.468485
 C         2.970965        -1.799442        -0.978674
 C         3.731358        -0.595125        -1.456794
 C         2.191663        -0.511002        -1.286891
 O         1.625243        -0.370297        -2.488147
 H        -0.513894         0.354134        -0.491322
 H        -0.291214        -1.265191         0.100800
 H        -0.147947         0.098523         1.292798
 H         0.919870         1.745798         0.282071
 H         2.113373        -0.761245         2.060024
 H         3.349740        -2.650063         1.096507
 H         2.786015        -2.541472        -1.752341
 H         4.308385        -0.015214        -0.674495
 H         4.079385        -0.461657        -2.457993
 H         1.839017         0.482967        -2.882212
