19
Iteration:   200
 C         0.081969        -0.210435        -0.186167
 C         1.607364        -0.020600        -0.023578
 O         1.975854         1.415875         0.090002
 C         2.108376        -1.001357         1.146514
 C         2.861654        -1.983322         0.623441
 C         2.956316        -1.766058        -0.856233
 C         3.648896        -0.480909        -1.421741
 C         2.267001        -0.522773        -1.272542
 O         1.482947        -0.407572        -2.396561
 H        -0.400510        -0.471814         0.783016
 H        -0.200951         0.851535        -0.384925
 H        -0.283119        -0.907506        -0.913741
 H         1.842977         1.610543         1.055335
 H         1.708534        -0.782569         2.173070
 H         3.493307        -2.715827         1.116241
 H         3.111626        -2.557063        -1.571871
 H         4.167720         0.148649        -0.698063
 H         3.975960        -0.718104        -2.441208
 H         1.980826         0.046524        -3.114461
