19
Iteration:  1937charge 0 multiplicity 1
 C         0.012892        -0.060680         0.168112
 C         1.568814         0.029926         0.026112
 O         1.873536         1.406980         0.317402
 C         2.166928        -0.952412         1.029793
 C         2.864933        -1.920324         0.527060
 C         3.008548        -1.815128        -1.031661
 C         3.744327        -0.538301        -1.450333
 C         2.244605        -0.532088        -1.347546
 O         1.501221        -0.568094        -2.530374
 H        -0.376141         0.521417        -0.657587
 H        -0.597781        -1.032509         0.059419
 H        -0.270360         0.270022         1.142224
 H         2.622942         1.686225        -0.337249
 H         1.991411        -0.762477         2.079777
 H         3.020868        -2.913459         1.006558
 H         3.079658        -2.783035        -1.597801
 H         4.329109         0.055788        -0.721636
 H         4.271683        -0.498257        -2.453747
 H         1.712043         0.309012        -2.951626
