19
Iteration:   482
 C        -0.033609        -0.075303         0.010064
 C         1.496622        -0.070865        -0.073826
 O         1.820016         1.317022         0.127770
 C         2.159503        -0.881703         1.135813
 C         2.924991        -1.887606         0.617999
 C         3.060217        -1.850886        -0.891114
 C         3.729353        -0.571561        -1.388823
 C         2.218284        -0.629588        -1.283044
 O         1.656763        -0.263807        -2.553711
 H        -0.228557        -0.624061         0.897343
 H        -0.209517         0.980771         0.171917
 H        -0.595983        -0.568617        -0.808614
 H         2.665751         1.580440         0.425675
 H         1.679853        -0.918440         2.116036
 H         3.246447        -2.760431         1.188488
 H         3.216767        -2.812135        -1.471626
 H         4.199416         0.109124        -0.758937
 H         4.026916        -0.645153        -2.450958
 H         0.826467        -0.763837        -2.809595
