19
Iteration:  3099
 C        -0.073957        -0.078482        -0.067443
 C         1.478918        -0.031060         0.052466
 O         1.996997         1.296243         0.493037
 C         2.176450        -0.979817         1.042685
 C         3.123830        -1.722026         0.564574
 C         3.008561        -1.752971        -0.968118
 C         3.624106        -0.494351        -1.617321
 C         2.171154        -0.578169        -1.296424
 O         1.496244        -0.567806        -2.495742
 H        -0.486538         0.685090        -0.752046
 H        -0.319734        -1.020087        -0.459463
 H        -0.532143         0.155589         0.937305
 H         1.619766         1.837987        -0.151859
 H         1.877201        -0.975551         2.122892
 H         3.711171        -2.353985         1.211150
 H         2.981137        -2.674038        -1.526969
 H         4.295594        -0.147997        -0.890772
 H         3.960206        -0.774826        -2.698317
 H         2.011289         0.060908        -3.045549
