19
Iteration:   516charge 0 multiplicity 1
 C         0.090755        -0.158296        -0.096878
 C         1.570489         0.051181        -0.044390
 O         1.855963         1.438277         0.323264
 C         2.105589        -0.943320         1.051105
 C         2.776251        -1.928364         0.502445
 C         2.948192        -1.734684        -1.012079
 C         3.790900        -0.570750        -1.274553
 C         2.241395        -0.466993        -1.249267
 O         1.531076        -0.516097        -2.487309
 H        -0.116691        -0.367867         0.914520
 H        -0.373581         0.794742        -0.288052
 H        -0.281026        -0.948857        -0.830662
 H         2.620465         1.521956        -0.344185
 H         2.197031        -0.672181         2.152150
 H         3.481403        -2.607685         1.056537
 H         2.945416        -2.608191        -1.713922
 H         4.401930         0.048111        -0.649619
 H         4.145269        -0.596451        -2.343340
 H         1.610637        -1.483219        -2.623673
