19
Iteration:  4575charge 0 multiplicity 1
 C        -0.004718         0.048795        -0.053900
 C         1.507164        -0.106797         0.033456
 O         2.081719         1.251829         0.314963
 C         2.088678        -1.170569         1.028177
 C         3.070961        -1.927050         0.511629
 C         3.175599        -1.587808        -0.975592
 C         3.610511        -0.277322        -1.514015
 C         2.126214        -0.572862        -1.317794
 O         1.329701        -0.540257        -2.383668
 H        -0.639105        -0.912794        -0.076138
 H        -0.295266         0.586366         0.784725
 H        -0.140998         0.811685        -0.963077
 H         2.600618         1.290327         1.053988
 H         1.635730        -1.405169         2.031728
 H         3.571028        -2.723489         1.088855
 H         3.010236        -2.487020        -1.571708
 H         4.106070         0.330565        -0.738993
 H         4.000174        -0.307557        -2.557335
 H         1.789563        -0.637625        -3.276395
