19
Iteration:  1771charge 0 multiplicity 1
 C         0.075008        -0.102725        -0.176664
 C         1.602480        -0.029931         0.036797
 O         2.006842         1.326083         0.247494
 C         2.169952        -1.026762         1.149029
 C         2.907503        -1.924353         0.591202
 C         2.966367        -1.757002        -0.941652
 C         3.728427        -0.514006        -1.519890
 C         2.215385        -0.569527        -1.267313
 O         1.361410        -0.368979        -2.357322
 H        -0.312396         0.311958        -1.115679
 H        -0.258171        -1.110966        -0.168568
 H        -0.434580         0.295808         0.760775
 H         1.382881         1.995877         0.017178
 H         1.789886        -0.979823         2.171360
 H         3.626215        -2.600038         1.168850
 H         2.965841        -2.711957        -1.500940
 H         4.459716         0.115604        -1.088466
 H         3.997287        -0.611643        -2.669404
 H         2.025636        -0.116391        -3.047889
