19
Iteration:  1312
 C         0.143159        -0.210669        -0.271122
 C         1.542385        -0.043223         0.053190
 O         1.898394         1.390082         0.279428
 C         2.145770        -0.903866         1.130912
 C         2.896383        -1.899068         0.628158
 C         2.958688        -1.820681        -0.906241
 C         3.725884        -0.620977        -1.515535
 C         2.226841        -0.473781        -1.334514
 O         1.432772        -0.391025        -2.439605
 H        -0.159491         0.481817        -1.066031
 H        -0.032889        -1.306446        -0.433541
 H        -0.296660        -0.017096         0.688784
 H         2.083780         1.558879         1.178799
 H         2.104614        -0.610806         2.150569
 H         3.473160        -2.568274         1.250164
 H         2.862790        -2.772721        -1.434794
 H         4.239854         0.006533        -0.683446
 H         4.131132        -0.769483        -2.524546
 H         1.734673         0.491582        -2.766884
