19
Iteration:  3007charge 0 multiplicity 1
 C        -0.016415        -0.205984         0.133069
 C         1.582323        -0.105434         0.003239
 O         1.842983         1.327346         0.093133
 C         2.272150        -0.882536         1.123210
 C         3.015564        -1.877740         0.572660
 C         2.942481        -1.756877        -0.984021
 C         3.748415        -0.569984        -1.438171
 C         2.196515        -0.581481        -1.310633
 O         1.503023        -0.337242        -2.555318
 H        -0.683965         0.282883        -0.603841
 H        -0.530353        -1.232134         0.276619
 H        -0.288030         0.223275         1.079287
 H         1.543625         1.588674         1.045437
 H         2.046017        -0.674793         2.174295
 H         3.428821        -2.706800         1.151316
 H         3.016034        -2.520908        -1.706616
 H         4.282905        -0.129271        -0.550916
 H         4.010121        -0.569910        -2.453354
 H         1.865717         0.467658        -3.006923
