19
Iteration:  2363charge 0 multiplicity 1
 C         0.100611        -0.074918        -0.264778
 C         1.579935        -0.041420         0.014312
 O         2.032459         1.326949         0.375836
 C         2.210576        -0.987190         1.165381
 C         2.961273        -1.913353         0.579580
 C         2.971621        -1.665936        -0.960471
 C         3.605407        -0.442172        -1.546386
 C         2.166447        -0.520986        -1.270699
 O         1.318298        -0.573574        -2.372321
 H        -0.188143         0.751397        -0.995057
 H        -0.046490        -1.018482        -0.721748
 H        -0.660584        -0.019315         0.579052
 H         3.046226         1.286946         0.385955
 H         1.871093        -1.091421         2.158339
 H         3.692533        -2.517677         1.140024
 H         2.986842        -2.594290        -1.622418
 H         4.367721         0.122829        -0.997875
 H         3.994821        -0.718216        -2.523876
 H         1.281235         0.303905        -2.832443
