19
Iteration:  2405charge 0 multiplicity 1
 C        -0.034445         0.014053         0.269018
 C         1.528955        -0.053574         0.002715
 O         1.890204         1.311164         0.174426
 C         2.167424        -0.934401         0.945869
 C         2.870283        -1.960404         0.478403
 C         3.021870        -1.757361        -0.947482
 C         3.762692        -0.448087        -1.354122
 C         2.230817        -0.560699        -1.343377
 O         1.480481        -0.586574        -2.556990
 H        -0.147740         1.138323         0.078653
 H        -0.625130        -0.646917        -0.314184
 H        -0.218931        -0.189772         1.348439
 H         2.811512         1.373409         0.097534
 H         1.937675        -0.847109         1.952416
 H         3.582090        -2.588031         0.982741
 H         3.241829        -2.671991        -1.587032
 H         4.325621         0.173787        -0.700550
 H         4.281631        -0.489614        -2.305656
 H         1.415591         0.359924        -2.834997
