19
Iteration:   795
 C         0.056855        -0.102396         0.027165
 C         1.535924        -0.000365        -0.021486
 O         1.805269         1.433115         0.135921
 C         2.125639        -0.914325         1.052214
 C         2.788356        -2.015880         0.569225
 C         2.968477        -1.799834        -0.939869
 C         3.802119        -0.519233        -1.329458
 C         2.265740        -0.519421        -1.270454
 O         1.627138        -0.406396        -2.501799
 H        -0.364114         0.658780         0.658842
 H        -0.214645         0.058171        -0.997337
 H        -0.311665        -1.132330         0.202444
 H         2.708985         1.468060        -0.076764
 H         1.963091        -0.738146         2.111066
 H         3.252869        -2.756376         1.175419
 H         2.745758        -2.672581        -1.506375
 H         4.483965        -0.212087        -0.504176
 H         4.218100        -0.589240        -2.299663
 H         1.195537        -1.230647        -2.743673
