19
Iteration:  4869
 C        -0.008006        -0.066785         0.048496
 C         1.539321         0.043901         0.073813
 O         1.993782         1.407446         0.399862
 C         2.124145        -1.089083         0.945093
 C         2.950370        -2.008323         0.493478
 C         3.107557        -1.631650        -1.006588
 C         3.708742        -0.342543        -1.558209
 C         2.134632        -0.541130        -1.258706
 O         1.384774        -0.668703        -2.462961
 H        -0.327481        -0.378647        -0.912692
 H        -0.275689        -0.814891         0.704789
 H        -0.592455         0.820866         0.316552
 H         2.926236         1.273872         0.557886
 H         1.590431        -0.935127         1.926904
 H         3.559197        -2.745967         0.975495
 H         2.973522        -2.378215        -1.746574
 H         4.278642         0.217995        -0.800582
 H         4.194243        -0.172204        -2.531346
 H         2.043363        -0.273192        -3.106608
