19
Iteration:  1101
 C         0.089474        -0.146973        -0.146184
 C         1.584511        -0.028994         0.018391
 O         1.860547         1.400460         0.196991
 C         2.155884        -0.992832         1.107758
 C         2.838265        -1.986820         0.544836
 C         2.956638        -1.744715        -0.975289
 C         3.735798        -0.453374        -1.368828
 C         2.220190        -0.550012        -1.201307
 O         1.514192        -0.474748        -2.420751
 H        -0.355309         0.678314        -0.707915
 H        -0.124672        -0.978598        -0.760050
 H        -0.517098        -0.452867         0.725403
 H         2.793415         1.755624        -0.064431
 H         1.948707        -0.753621         2.133903
 H         3.279381        -2.761792         1.131024
 H         3.089584        -2.488270        -1.754051
 H         4.406915        -0.161598        -0.532313
 H         4.068191        -0.453071        -2.391192
 H         1.555522         0.457313        -2.730027
