19
Iteration:  4054charge 0 multiplicity 1
 C        -0.064720         0.094094        -0.038547
 C         1.538198        -0.081845         0.084069
 O         2.053021         1.256562         0.452955
 C         2.081118        -1.079076         1.093068
 C         3.003852        -1.956025         0.526681
 C         3.134938        -1.624346        -0.974505
 C         3.635652        -0.224825        -1.456415
 C         2.169150        -0.521772        -1.359685
 O         1.421245        -0.792256        -2.563435
 H        -0.315668         0.336167        -1.142388
 H        -0.734807        -0.664028         0.207981
 H        -0.420869         1.014674         0.576693
 H         2.953719         1.372408        -0.037739
 H         1.636773        -1.215822         2.070039
 H         3.700410        -2.636198         0.916176
 H         3.401324        -2.441511        -1.616057
 H         4.044931         0.626508        -0.795190
 H         4.012486        -0.278285        -2.505762
 H         1.270441        -0.024744        -3.173781
