19
Iteration:   412
 C         0.039641        -0.163609        -0.132949
 C         1.665307         0.048611        -0.002701
 O         1.773976         1.509246         0.291733
 C         2.128983        -0.998255         1.090671
 C         2.745000        -2.068249         0.610935
 C         2.981001        -1.768186        -0.922773
 C         3.777980        -0.464447        -1.454393
 C         2.340145        -0.525412        -1.303558
 O         1.506846        -0.533587        -2.441789
 H        -0.161932        -0.638694         0.904907
 H        -0.421299         0.866242        -0.225435
 H        -0.164728        -0.997819        -0.800607
 H         2.571238         1.744737        -0.120109
 H         1.889542        -0.663665         2.162303
 H         3.355116        -2.838659         1.167178
 H         2.913976        -2.521410        -1.705355
 H         4.247206         0.245558        -0.752055
 H         4.102885        -0.534261        -2.518714
 H         2.143993        -0.186523        -3.109856
