19
Iteration:  2064charge 0 multiplicity 1
 C         0.041386        -0.009535        -0.039506
 C         1.574379         0.073272         0.002309
 O         1.810841         1.381015         0.439941
 C         2.262508        -0.968328         1.166201
 C         2.915031        -1.943573         0.552582
 C         2.907506        -1.763359        -0.950765
 C         3.673600        -0.595451        -1.599817
 C         2.219841        -0.510874        -1.293645
 O         1.603063        -0.535999        -2.587791
 H        -0.485443         0.716005        -0.629516
 H        -0.335543        -1.046116        -0.259209
 H        -0.321748         0.321773         0.997186
 H         2.748065         1.608493         0.365248
 H         2.285085        -0.896152         2.220428
 H         3.644234        -2.622370         0.949976
 H         2.824516        -2.535362        -1.757049
 H         4.385689        -0.065556        -1.022250
 H         3.792989        -0.460813        -2.701920
 H         0.824336        -1.112431        -2.625190
