19
Iteration:  3110
 C        -0.046595        -0.040002        -0.049982
 C         1.499294        -0.038280         0.106607
 O         1.973808         1.176031         0.496199
 C         2.103345        -0.944726         1.119084
 C         3.148011        -1.669042         0.529072
 C         3.028825        -1.699392        -0.952843
 C         3.712627        -0.555125        -1.623392
 C         2.146011        -0.547207        -1.286582
 O         1.447460        -0.569154        -2.562935
 H        -0.298608         0.598724        -0.904244
 H        -0.389649        -1.004463        -0.304996
 H        -0.677361         0.197371         0.861938
 H         1.735924         1.913218        -0.082628
 H         1.756792        -0.851375         2.185145
 H         3.748282        -2.449036         0.976844
 H         2.922859        -2.636287        -1.449425
 H         4.434544         0.092058        -1.126734
 H         4.050993        -0.689002        -2.745462
 H         1.994076        -0.153769        -3.215164
