19
Iteration:  4243charge 0 multiplicity 1
 C         0.011958        -0.129912         0.082414
 C         1.560339        -0.085270         0.020251
 O         1.912025         1.288939         0.364073
 C         2.137194        -0.938618         1.031735
 C         2.958404        -1.934954         0.447060
 C         3.050351        -1.776166        -0.999556
 C         3.657459        -0.402201        -1.398656
 C         2.181060        -0.534423        -1.367161
 O         1.464012        -0.467946        -2.560343
 H        -0.265982        -0.885767         0.771659
 H        -0.344745         0.888457         0.497629
 H        -0.345724        -0.238401        -0.878015
 H         2.889639         1.401904         0.434159
 H         1.928974        -0.725307         2.117137
 H         3.581948        -2.603180         1.040687
 H         3.070123        -2.626663        -1.659973
 H         4.102567         0.045963        -0.541900
 H         4.210350        -0.380759        -2.311939
 H         1.582783         0.409870        -2.909693
