19
Iteration:  3409
 C         0.058825        -0.078968        -0.213592
 C         1.555936        -0.008812         0.114489
 O         2.100410         1.237269         0.360216
 C         2.133230        -1.000750         1.081809
 C         2.968243        -1.801386         0.515701
 C         3.043619        -1.635719        -0.988331
 C         3.688989        -0.359720        -1.541121
 C         2.192016        -0.493180        -1.297596
 O         1.349372        -0.679714        -2.413324
 H        -0.315160         0.222714        -1.186647
 H        -0.162558        -1.251455        -0.276660
 H        -0.644812         0.105545         0.559487
 H         1.814606         1.400786         1.230942
 H         1.780469        -0.999710         2.143822
 H         3.500076        -2.635781         0.997457
 H         3.038888        -2.510923        -1.519938
 H         4.222919         0.161378        -0.719065
 H         3.794493        -0.313333        -2.568905
 H         1.208382         0.247946        -2.648583
