19
Iteration:  4736charge 0 multiplicity 1
 C         0.084696        -0.338622         0.157316
 C         1.645595        -0.004840         0.023848
 O         1.682466         1.429165         0.254943
 C         2.341375        -0.878966         1.099708
 C         2.840960        -1.977910         0.420436
 C         2.880715        -1.769774        -1.049081
 C         3.784350        -0.726175        -1.440657
 C         2.233901        -0.426851        -1.316642
 O         1.577355        -0.244836        -2.521079
 H        -0.153402        -1.318481         0.609082
 H        -0.310663         0.396945         0.761126
 H        -0.421655        -0.133206        -0.817052
 H         2.550160         1.651100         0.337609
 H         2.429777        -0.783061         2.212511
 H         3.329006        -2.888663         0.962043
 H         2.649049        -2.537703        -1.847440
 H         4.473034        -0.301514        -0.605170
 H         4.093501        -0.346957        -2.462496
 H         0.579336        -0.387559        -2.420901
