19
Iteration:  2281
 C         0.037767        -0.079588         0.223923
 C         1.576169        -0.005370        -0.023308
 O         1.975709         1.325366         0.092203
 C         2.211498        -0.950138         1.095132
 C         2.818291        -1.960089         0.470158
 C         3.017874        -1.752121        -1.002331
 C         3.659187        -0.400899        -1.294746
 C         2.100759        -0.582970        -1.270604
 O         1.539027        -0.524808        -2.585601
 H        -0.636827         0.488380        -0.363998
 H        -0.260015        -1.183403         0.149121
 H         0.066167         0.158238         1.282385
 H         2.731069         1.452828        -0.458065
 H         2.070706        -0.981135         2.241629
 H         3.160710        -2.931731         0.950108
 H         3.091401        -2.652359        -1.560538
 H         4.149556         0.187050        -0.468428
 H         3.931576        -0.214825        -2.302665
 H         1.515259         0.448909        -2.746936
