19
Iteration:  3087charge 0 multiplicity 1
 C        -0.018412        -0.114172        -0.064459
 C         1.527182        -0.049721        -0.024324
 O         1.972985         1.372931         0.440410
 C         2.153600        -0.947677         1.046408
 C         3.044005        -1.872727         0.517997
 C         3.057318        -1.812596        -0.931084
 C         3.667942        -0.496440        -1.493314
 C         2.192517        -0.563223        -1.281044
 O         1.435834        -0.561606        -2.486891
 H        -0.432228         0.744197        -0.684532
 H        -0.405305        -1.002284        -0.426099
 H        -0.387636        -0.075081         0.968697
 H         1.616866         2.142624        -0.133198
 H         2.112823        -0.685134         2.135700
 H         3.825220        -2.392969         1.083878
 H         2.980158        -2.748634        -1.557162
 H         4.296689         0.219474        -1.001821
 H         3.825018        -0.352390        -2.636109
 H         1.654971         0.245326        -3.020208
