19
Iteration:   971
 C        -0.000595        -0.118116        -0.221113
 C         1.583938        -0.060296         0.032163
 O         1.893819         1.376499         0.340883
 C         2.098688        -0.937705         1.145070
 C         2.829994        -1.941712         0.624834
 C         3.062279        -1.838421        -0.945609
 C         3.792767        -0.540946        -1.445703
 C         2.329320        -0.519818        -1.360877
 O         1.396018        -0.374861        -2.405478
 H        -0.293666         0.795598        -0.712535
 H        -0.216131        -0.939294        -0.819494
 H        -0.628506        -0.039764         0.663951
 H         2.589223         1.588279        -0.256011
 H         1.888425        -0.579512         2.171066
 H         3.267645        -2.731170         1.287134
 H         3.124557        -2.722275        -1.602520
 H         4.427142         0.027007        -0.716101
 H         4.152948        -0.742419        -2.419915
 H         1.802793        -0.385179        -3.277011
