19
Iteration:  3807charge 0 multiplicity 1
 C         0.022389        -0.113268         0.080684
 C         1.530849        -0.045035        -0.021826
 O         1.909852         1.350915         0.305963
 C         2.148314        -0.867443         1.008873
 C         2.966246        -1.884188         0.516151
 C         3.074709        -1.823709        -0.982949
 C         3.694185        -0.541253        -1.462522
 C         2.250753        -0.569520        -1.306180
 O         1.467318        -0.511063        -2.508839
 H        -0.448235         0.926382        -0.218170
 H        -0.559857        -0.776496        -0.526070
 H        -0.355841        -0.346597         1.095680
 H         1.055843         1.811237         0.647246
 H         2.054481        -0.602839         2.093349
 H         3.699535        -2.496980         1.099716
 H         3.062521        -2.694913        -1.647747
 H         4.234555        -0.093185        -0.572556
 H         4.232648        -0.426653        -2.439785
 H         1.859106         0.197695        -3.059410
