19
Iteration:   638
 C         0.013386        -0.134628        -0.052175
 C         1.606241         0.007900         0.036388
 O         1.969112         1.398394         0.153187
 C         2.120346        -0.927945         1.105691
 C         2.770929        -1.970957         0.532154
 C         3.043928        -1.699771        -0.918024
 C         3.690508        -0.414898        -1.313281
 C         2.236643        -0.539925        -1.296354
 O         1.575724        -0.546213        -2.540342
 H        -0.450566        -0.104597         0.918687
 H        -0.194025         0.748819        -0.642312
 H        -0.242470        -0.974892        -0.667834
 H         2.210661         1.608985         1.116258
 H         1.624743        -0.892701         2.034717
 H         3.076422        -2.906915         0.935512
 H         2.976152        -2.497724        -1.645333
 H         4.289534         0.199691        -0.607978
 H         4.110720        -0.436009        -2.349183
 H         1.220518        -1.399256        -2.819152
