19
Iteration:  4509charge 0 multiplicity 1
 C         0.063362        -0.214834         0.046165
 C         1.600201         0.012521         0.097107
 O         1.819543         1.387140         0.359157
 C         2.175244        -0.947598         1.078892
 C         2.911908        -1.930871         0.396549
 C         2.947881        -1.726199        -1.022982
 C         3.711666        -0.512548        -1.483342
 C         2.232102        -0.499096        -1.299261
 O         1.467936        -0.391646        -2.506602
 H        -0.130940        -1.173734        -0.560335
 H        -0.296863        -0.383636         1.026633
 H        -0.405723         0.752841        -0.415231
 H         2.847508         1.410538         0.503385
 H         2.283376        -0.821534         2.225637
 H         3.618722        -2.626017         0.933736
 H         2.975067        -2.509791        -1.746590
 H         4.495023        -0.185512        -0.761619
 H         4.106780        -0.472645        -2.550156
 H         1.302723        -1.270778        -2.835455
