19
Iteration:  4194
 C         0.111771        -0.336857        -0.033496
 C         1.600944         0.007187         0.028092
 O         1.632751         1.431268         0.194984
 C         2.378530        -0.920329         1.134248
 C         2.861182        -1.989292         0.538457
 C         2.893085        -1.906575        -0.964793
 C         3.758441        -0.609203        -1.547766
 C         2.285937        -0.538717        -1.300844
 O         1.515247        -0.166564        -2.390275
 H        -0.011838        -1.348304         0.565030
 H        -0.423474         0.447564         0.472413
 H        -0.251415        -0.287718        -1.165617
 H         2.587785         1.655244         0.297143
 H         2.241396        -0.862692         2.241263
 H         3.229831        -2.877935         1.089228
 H         2.875920        -2.740393        -1.734296
 H         4.435131        -0.113212        -0.795255
 H         3.835738        -0.592791        -2.676548
 H         1.541067         0.828775        -2.199714
