19
Iteration:  2392
 C         0.034438         0.007478         0.102590
 C         1.542728        -0.027365        -0.051851
 O         1.962665         1.338475         0.231712
 C         2.083925        -0.994268         1.091563
 C         2.909433        -1.924844         0.527823
 C         3.144609        -1.749548        -1.001303
 C         3.715920        -0.441669        -1.441287
 C         2.164705        -0.612011        -1.311386
 O         1.411755        -0.553354        -2.463191
 H        -0.589990         0.935155        -0.048455
 H        -0.442752        -0.715393        -0.605617
 H        -0.205965        -0.316324         1.090704
 H         2.972132         1.373000         0.044996
 H         1.867883        -0.836691         2.111696
 H         3.425263        -2.565760         1.188933
 H         3.109951        -2.584902        -1.734148
 H         4.310439        -0.028831        -0.689484
 H         4.026910        -0.408126        -2.523264
 H         1.497105         0.296585        -2.909058
