19
Iteration:  4705charge 0 multiplicity 1
 C         0.055693        -0.278274         0.115447
 C         1.596440        -0.041949         0.053901
 O         1.873088         1.364960         0.244732
 C         2.286843        -0.922508         1.053695
 C         2.947257        -1.905590         0.534287
 C         2.852086        -1.880502        -1.005169
 C         3.640387        -0.511136        -1.452427
 C         2.159366        -0.583547        -1.294785
 O         1.571489        -0.173813        -2.525417
 H        -0.072538        -1.405821        -0.027384
 H        -0.294311         0.090080         1.054446
 H        -0.413913         0.360203        -0.753928
 H         2.785662         1.633166        -0.197633
 H         2.066091        -0.842109         2.110447
 H         3.342253        -2.801024         1.090948
 H         3.050516        -2.760207        -1.695489
 H         4.225983        -0.108922        -0.565601
 H         3.840497        -0.089011        -2.452424
 H         1.014484        -0.829307        -2.914176
