19
Iteration:  1287
 C        -0.044478        -0.102326        -0.101263
 C         1.486691        -0.016430        -0.001026
 O         1.812588         1.405209         0.306341
 C         2.222594        -0.881610         0.979098
 C         3.018468        -1.849650         0.551737
 C         2.968667        -1.841471        -0.904013
 C         3.828160        -0.682969        -1.355057
 C         2.188438        -0.620406        -1.306087
 O         1.481680        -0.376914        -2.537610
 H        -0.229527         0.737636        -0.812738
 H        -0.324112        -1.114068        -0.570750
 H        -0.462611         0.014830         0.905729
 H         2.341787         1.378841         1.148418
 H         1.967997        -0.641566         2.073151
 H         3.577984        -2.728393         1.042707
 H         2.874764        -2.819546        -1.394985
 H         4.499151        -0.138782        -0.617957
 H         4.097921        -0.772908        -2.425653
 H         2.032613         0.383094        -2.796264
