19
Iteration:  2936
 C         0.193530        -0.211779        -0.082346
 C         1.606173         0.018581        -0.029854
 O         1.840983         1.429544         0.347728
 C         2.135027        -0.963254         1.114227
 C         2.797831        -1.982061         0.543052
 C         3.015738        -1.683264        -0.974799
 C         3.754801        -0.449999        -1.477077
 C         2.251025        -0.422257        -1.358017
 O         1.421071        -0.646032        -2.384713
 H        -0.415270         0.610446        -0.628354
 H        -0.177277        -1.138215        -0.441938
 H        -0.217105        -0.294318         0.984316
 H         2.538148         1.742403        -0.336476
 H         2.171582        -0.709542         2.154737
 H         3.375351        -2.802421         1.017567
 H         3.006617        -2.539529        -1.759601
 H         4.462313         0.162596        -0.848704
 H         3.993880        -0.689420        -2.470793
 H         1.129252         0.257968        -2.675367
