19
Iteration:  2986
 C        -0.012461        -0.148676         0.007139
 C         1.505240        -0.064801         0.071223
 O         1.769685         1.319688         0.267780
 C         2.247786        -0.846579         0.996166
 C         3.063350        -1.834756         0.523409
 C         3.036411        -1.929116        -0.908580
 C         3.661857        -0.659808        -1.448736
 C         2.222500        -0.559083        -1.338329
 O         1.490676        -0.314607        -2.533298
 H        -0.429199         0.411417        -0.874686
 H        -0.446333        -1.162855         0.046462
 H        -0.467801         0.173076         0.891759
 H         2.188245         1.470654         1.139189
 H         2.251330        -0.405715         1.991765
 H         4.012553        -2.163558         0.971242
 H         3.061991        -2.896484        -1.396052
 H         4.324460         0.049950        -0.799921
 H         3.913748        -0.747125        -2.474461
 H         1.836203         0.509732        -2.863569
