19
Iteration:  3470charge 0 multiplicity 1
 C        -0.045521         0.004766         0.169332
 C         1.520209        -0.076667         0.006871
 O         1.968035         1.317883         0.215748
 C         2.106810        -1.051739         1.003740
 C         2.958029        -1.888711         0.516399
 C         3.088630        -1.714488        -0.939903
 C         3.603289        -0.270754        -1.439632
 C         2.172889        -0.560361        -1.304647
 O         1.532486        -0.703400        -2.539715
 H        -0.365296         1.137366         0.100802
 H        -0.497942        -0.602861        -0.645406
 H        -0.412861        -0.408553         1.177211
 H         2.947259         1.378551         0.278416
 H         1.795507        -0.969575         2.078700
 H         3.495655        -2.582057         1.102500
 H         3.310036        -2.468384        -1.714248
 H         4.307627         0.290814        -0.727749
 H         4.168256        -0.278604        -2.406205
 H         1.502101         0.164785        -2.993686
