19
Iteration:   683charge 0 multiplicity 1
 C         0.089864        -0.091101        -0.188216
 C         1.544526        -0.008766         0.019803
 O         1.790636         1.363216         0.362770
 C         2.125044        -0.892071         1.012568
 C         2.931402        -1.832072         0.607295
 C         3.010815        -1.782065        -0.859676
 C         3.844622        -0.611204        -1.412140
 C         2.208263        -0.574465        -1.352927
 O         1.441195        -0.432748        -2.474690
 H        -0.299173        -0.388393         0.780689
 H        -0.312255         0.904267        -0.394432
 H        -0.250071        -0.646235        -0.978634
 H         2.787981         1.514651         0.132683
 H         1.623643        -0.859228         1.970975
 H         3.143055        -2.695632         1.285942
 H         3.131437        -2.775198        -1.388510
 H         4.345730         0.047138        -0.727697
 H         4.373995        -0.612520        -2.446002
 H         1.797984        -1.057248        -3.140719
