19
Iteration:  4258
 C        -0.024761        -0.010700         0.101976
 C         1.532472        -0.021687         0.017320
 O         1.944471         1.310772         0.448825
 C         2.156269        -1.042908         1.016596
 C         2.930405        -2.019688         0.493973
 C         3.112459        -1.683677        -0.986106
 C         3.685217        -0.315521        -1.380335
 C         2.107399        -0.571198        -1.328443
 O         1.459055        -0.585979        -2.643551
 H        -0.306648        -0.936681         0.743524
 H        -0.235757         0.928009         0.492750
 H        -0.428846        -0.162226        -0.991286
 H         2.889578         1.260626        -0.036350
 H         2.095070        -0.931844         2.096906
 H         3.339610        -2.886967         1.011449
 H         3.479157        -2.474421        -1.746159
 H         4.282093         0.456413        -0.830044
 H         3.793977        -0.308745        -2.486092
 H         1.748230         0.246403        -3.136178
