19
Iteration:  4466charge 0 multiplicity 1
 C         0.073982        -0.258170         0.098734
 C         1.568474        -0.063623         0.027461
 O         1.739067         1.366755         0.322481
 C         2.238971        -0.939747         1.060731
 C         2.977909        -1.926567         0.455102
 C         2.978065        -1.843878        -1.034430
 C         3.763421        -0.661208        -1.422421
 C         2.207648        -0.518495        -1.332185
 O         1.503952        -0.185910        -2.505883
 H        -0.238657        -1.343605         0.063348
 H        -0.316042         0.211363         0.901013
 H        -0.467490         0.156750        -0.822439
 H         2.313331         1.832264        -0.336783
 H         2.218703        -0.695348         2.150380
 H         3.709431        -2.580815         0.945303
 H         2.929635        -2.780719        -1.524062
 H         4.394687        -0.037927        -0.747603
 H         4.236067        -0.620267        -2.450228
 H         0.742371         0.319688        -2.263169
