19
Iteration:  4366
 C        -0.093617        -0.105387         0.057182
 C         1.482854        -0.038130         0.011862
 O         1.968218         1.358369         0.399240
 C         2.145156        -0.981554         1.056621
 C         3.051938        -1.867179         0.415558
 C         2.978458        -1.737862        -1.017128
 C         3.723967        -0.447342        -1.518413
 C         2.270745        -0.513087        -1.322141
 O         1.461618        -0.573318        -2.505352
 H        -0.317549        -0.891987        -0.683979
 H        -0.599329        -0.433577         0.901411
 H        -0.508705         0.809268        -0.349724
 H         2.386882         1.278672         1.352601
 H         2.166423        -0.917513         2.161490
 H         3.620936        -2.684126         0.963553
 H         2.965250        -2.669842        -1.661201
 H         4.487033        -0.024332        -0.813877
 H         4.150225        -0.275464        -2.516846
 H         1.172204         0.342828        -2.645351
