19
Iteration:  4448charge 0 multiplicity 1
 C         0.028520        -0.374304         0.059168
 C         1.571288        -0.065936         0.013914
 O         1.812278         1.362706         0.191377
 C         2.249226        -0.892123         1.048125
 C         2.954481        -1.971590         0.459444
 C         2.870552        -1.835842        -1.049036
 C         3.798183        -0.519555        -1.417014
 C         2.260161        -0.504090        -1.253935
 O         1.459831        -0.201533        -2.413473
 H        -0.177370        -1.401749         0.280695
 H        -0.358940         0.329706         0.922205
 H        -0.597328        -0.208002        -0.803811
 H         2.674137         1.568145        -0.255970
 H         2.222473        -0.649759         2.181975
 H         3.553059        -2.721839         1.113493
 H         2.818660        -2.648004        -1.865493
 H         4.380137        -0.366743        -0.552029
 H         4.175048        -0.394241        -2.431078
 H         1.276743         0.691199        -2.151488
