19
Iteration:  2712
 C         0.111950        -0.153776        -0.018014
 C         1.662408        -0.071622         0.051247
 O         1.854239         1.351768         0.094962
 C         2.212957        -0.939243         1.110979
 C         2.899923        -1.953454         0.515367
 C         2.947513        -1.791060        -1.005950
 C         3.736636        -0.504321        -1.359879
 C         2.208148        -0.530598        -1.275929
 O         1.379501        -0.399331        -2.427698
 H        -0.412110         0.608044        -0.473057
 H        -0.265135        -1.173343        -0.368609
 H        -0.143706        -0.061412         1.055410
 H         2.799364         1.577970        -0.259452
 H         2.277420        -0.700730         2.147205
 H         3.170485        -2.822055         1.142410
 H         2.963021        -2.773877        -1.589870
 H         4.217387         0.021086        -0.478926
 H         4.147734        -0.336462        -2.347450
 H         1.259654         0.558837        -2.505580
