19
Iteration:  3044charge 0 multiplicity 1
 C         0.127552        -0.295391         0.086547
 C         1.694336         0.036647         0.028247
 O         1.958800         1.473367         0.071192
 C         2.221503        -0.931572         1.065299
 C         2.754387        -2.077744         0.464084
 C         3.011594        -1.730576        -1.020865
 C         3.718923        -0.393643        -1.275696
 C         2.218285        -0.504764        -1.281882
 O         1.406264        -0.564661        -2.422221
 H        -0.533792         0.300308        -0.568276
 H         0.066939        -1.284532        -0.200328
 H        -0.086868        -0.005843         1.132574
 H         1.100229         1.890664        -0.122667
 H         1.990164        -0.694554         2.122295
 H         3.077021        -3.040300         0.895796
 H         3.097611        -2.474163        -1.886503
 H         4.272766         0.170855        -0.555661
 H         4.226803        -0.220618        -2.294450
 H         1.111394         0.389978        -2.481287
