19
Iteration:  2912charge 0 multiplicity 1
 C        -0.005587        -0.152649         0.157363
 C         1.613867         0.083258         0.033588
 O         1.922774         1.431094         0.280213
 C         2.190612        -0.911584         0.994256
 C         2.826014        -1.948686         0.474252
 C         3.140443        -1.777984        -1.037647
 C         3.740778        -0.397769        -1.341174
 C         2.228983        -0.535542        -1.364396
 O         1.430409        -0.692706        -2.499572
 H        -0.450614         0.609229        -0.600362
 H        -0.285619        -1.054058        -0.279080
 H        -0.550141        -0.140603         1.098721
 H         2.501209         1.780961        -0.354960
 H         1.668080        -1.196676         1.897132
 H         2.961823        -2.856348         1.082571
 H         3.353462        -2.586996        -1.770967
 H         4.113245         0.171430        -0.415919
 H         4.254995        -0.269022        -2.281277
 H         1.081100         0.225832        -2.643066
