19
Iteration:  4502
 C         0.053799        -0.220208         0.055644
 C         1.599663        -0.014599         0.064418
 O         1.791019         1.390909         0.377760
 C         2.237190        -0.981087         1.097426
 C         2.874151        -1.925413         0.450980
 C         2.959345        -1.754035        -1.021432
 C         3.745638        -0.517765        -1.558056
 C         2.206999        -0.515785        -1.267614
 O         1.530181        -0.346141        -2.519300
 H        -0.179267        -1.113986        -0.450767
 H        -0.393293        -0.330379         1.048850
 H        -0.297946         0.675220        -0.425733
 H         2.737986         1.589937         0.319427
 H         2.185064        -0.628451         2.134023
 H         3.651141        -2.625723         0.869275
 H         2.752710        -2.665169        -1.707724
 H         4.238918         0.026460        -0.776243
 H         3.989321        -0.501732        -2.597336
 H         1.165595        -1.174614        -2.785660
