19
Iteration:  2481charge 0 multiplicity 1
 C         0.108572        -0.263489        -0.027285
 C         1.606476        -0.018736         0.045453
 O         1.845169         1.413903         0.182144
 C         2.200827        -0.839730         1.064706
 C         2.892275        -1.902346         0.544022
 C         2.930767        -1.844327        -0.938704
 C         3.833749        -0.712077        -1.412360
 C         2.265967        -0.530684        -1.325903
 O         1.286001        -0.280187        -2.380312
 H        -0.081226        -0.110975        -1.161717
 H        -0.050835        -1.305460         0.130722
 H        -0.515925         0.415158         0.630032
 H         2.849288         1.509344        -0.050988
 H         2.084306        -0.678210         2.174767
 H         3.438261        -2.733320         1.110881
 H         2.964458        -2.724144        -1.644013
 H         4.523928         0.015758        -0.933724
 H         4.163288        -0.865430        -2.385312
 H         1.562488         0.491573        -2.875617
