19
Iteration:  1398
 C        -0.120659         0.027725         0.133667
 C         1.547301        -0.061264         0.028237
 O         2.087451         1.275058         0.143642
 C         2.097103        -1.001870         1.019725
 C         2.938226        -1.974843         0.541115
 C         3.048782        -1.787207        -0.982127
 C         3.665605        -0.373671        -1.303945
 C         2.121797        -0.697844        -1.260012
 O         1.611749        -0.463409        -2.565630
 H        -0.652323         0.666297        -0.603900
 H        -0.560135        -0.982025        -0.149819
 H        -0.485877         0.409315         1.066131
 H         1.301628         1.792515         0.065578
 H         2.043353        -0.862164         2.051218
 H         3.457808        -2.722389         1.077576
 H         3.173173        -2.506226        -1.796133
 H         4.273509         0.192269        -0.585031
 H         3.960145        -0.173894        -2.398305
 H         1.850600         0.424254        -2.881258
