19
Iteration:  4913charge 0 multiplicity 1
 C         0.027899         0.095369        -0.066462
 C         1.551956        -0.128053        -0.010963
 O         1.918048         1.241190         0.407497
 C         2.181510        -1.067590         1.040912
 C         3.092843        -1.856306         0.576119
 C         3.102305        -1.700865        -0.941557
 C         3.663505        -0.378786        -1.493711
 C         2.142548        -0.611127        -1.341014
 O         1.374509        -0.579832        -2.525771
 H        -0.341998         0.032625        -1.058705
 H        -0.451581        -0.698871         0.370433
 H        -0.338450         1.028151         0.328896
 H         2.888343         1.307134         0.642545
 H         1.894330        -1.091379         2.154523
 H         3.813547        -2.517928         1.059636
 H         2.987780        -2.526416        -1.604543
 H         4.076803         0.528982        -1.053586
 H         3.894056        -0.347589        -2.549987
 H         0.859881         0.268076        -2.338759
