19
Iteration:  4703charge 0 multiplicity 1
 C         0.053055        -0.270400         0.100751
 C         1.608847        -0.053074         0.061045
 O         1.882867         1.361791         0.243512
 C         2.277180        -0.921492         1.058804
 C         2.948767        -1.899659         0.527310
 C         2.878435        -1.857810        -1.010516
 C         3.639310        -0.523944        -1.445513
 C         2.147133        -0.598541        -1.291871
 O         1.556757        -0.173193        -2.530128
 H        -0.117207        -1.348372        -0.060518
 H        -0.220214         0.060328         1.044362
 H        -0.422211         0.352288        -0.688274
 H         2.746343         1.646274        -0.198493
 H         2.042615        -0.853968         2.150236
 H         3.342546        -2.791670         1.100972
 H         3.026235        -2.738479        -1.644188
 H         4.188821        -0.128276        -0.528539
 H         3.865917        -0.056184        -2.433564
 H         0.995886        -0.837562        -2.939757
