19
Iteration:  2354charge 0 multiplicity 1
 C         0.095926        -0.044026        -0.300014
 C         1.583811        -0.013197         0.038133
 O         1.983260         1.284807         0.427926
 C         2.179949        -0.958025         1.167624
 C         2.965201        -1.895123         0.565717
 C         3.013493        -1.720467        -0.973814
 C         3.659999        -0.481982        -1.560337
 C         2.171816        -0.482868        -1.282173
 O         1.293870        -0.602851        -2.402822
 H        -0.173633         0.565076        -1.155431
 H        -0.161423        -1.069031        -0.501182
 H        -0.336070         0.247610         0.718358
 H         2.979141         1.227056         0.592221
 H         2.117572        -0.690705         2.296527
 H         3.734584        -2.632640         0.984947
 H         2.865907        -2.536900        -1.728881
 H         4.391037         0.134947        -0.894409
 H         3.901547        -0.543019        -2.621448
 H         1.309624         0.337699        -2.726988
