19
Iteration:  3187charge 0 multiplicity 1
 C         0.050878        -0.067774         0.073092
 C         1.575754        -0.021166        -0.014942
 O         2.033791         1.340180         0.138775
 C         2.156969        -1.048626         1.040559
 C         2.894360        -2.009068         0.500573
 C         2.997686        -1.703384        -0.893217
 C         3.705260        -0.288425        -1.341380
 C         2.173643        -0.537685        -1.309487
 O         1.474560        -0.639636        -2.474879
 H        -0.534118         0.616175        -0.475680
 H        -0.257720        -1.045571        -0.270931
 H        -0.258418        -0.009332         1.160210
 H         1.413956         1.995229        -0.158605
 H         2.080205        -1.101018         2.112447
 H         3.322447        -2.895931         0.986095
 H         3.127163        -2.391452        -1.640305
 H         4.158681         0.507872        -0.663817
 H         4.242589        -0.119210        -2.259649
 H         1.041279         0.146818        -2.859629
