19
Iteration:   324
 C         0.051616        -0.120076        -0.106938
 C         1.519039        -0.066852        -0.006523
 O         1.882905         1.354888         0.194611
 C         2.086823        -0.991261         1.080806
 C         2.882986        -1.951009         0.576050
 C         3.095360        -1.815306        -0.919899
 C         3.758892        -0.389596        -1.340620
 C         2.236988        -0.640235        -1.317182
 O         1.429466        -0.390891        -2.486074
 H        -0.259874         0.903300         0.191851
 H        -0.372859        -0.118124        -1.100606
 H        -0.475090        -0.834882         0.613089
 H         2.726407         1.414780         0.628171
 H         1.882737        -0.673281         2.106506
 H         3.243310        -2.808684         1.138347
 H         3.343506        -2.799826        -1.362650
 H         4.277951         0.211382        -0.612656
 H         4.298574        -0.569859        -2.334672
 H         1.862889         0.350346        -2.979319
