19
Iteration:  1669charge 0 multiplicity 1
 C         0.088108        -0.085551         0.032177
 C         1.621117        -0.007267        -0.028453
 O         1.890669         1.350918         0.101764
 C         2.131233        -0.993797         1.076485
 C         2.808533        -2.003147         0.532052
 C         3.102107        -1.771725        -0.927714
 C         3.765720        -0.521726        -1.310792
 C         2.228200        -0.500932        -1.289822
 O         1.363104        -0.460911        -2.457587
 H        -0.391707         0.816418        -0.345492
 H        -0.400679        -0.921592        -0.522645
 H        -0.168035        -0.021231         1.053137
 H         2.869979         1.438248        -0.155984
 H         1.657139        -1.053822         2.106289
 H         3.309367        -2.771158         1.096928
 H         3.186020        -2.386662        -1.802893
 H         4.143056         0.168438        -0.455062
 H         4.258428        -0.485802        -2.263691
 H         1.643868         0.392085        -2.809880
