19
Iteration:   848
 C        -0.015894        -0.020014        -0.214963
 C         1.509995        -0.008213        -0.092715
 O         1.898343         1.303376         0.311929
 C         2.117363        -0.878419         1.100625
 C         2.894692        -1.839462         0.654196
 C         3.016084        -1.852651        -0.870059
 C         3.749304        -0.656791        -1.426121
 C         2.256337        -0.577895        -1.262285
 O         1.559271        -0.364826        -2.466800
 H        -0.367304        -0.347607         0.752291
 H        -0.476203         0.913929        -0.482936
 H        -0.405943        -0.717530        -0.983486
 H         2.673955         1.545957        -0.128985
 H         2.006429        -0.505458         2.114565
 H         3.520793        -2.515205         1.197614
 H         3.131457        -2.781871        -1.410044
 H         4.361216         0.015806        -0.789409
 H         3.909251        -0.637482        -2.503240
 H         1.105569        -1.170307        -2.728748
