19
Iteration:  4174
 C         0.243166        -0.463081         0.104365
 C         1.671503        -0.013610         0.014751
 O         1.623515         1.389194         0.219709
 C         2.321074        -0.858326         1.067569
 C         2.842855        -1.927696         0.502519
 C         2.852410        -1.841263        -1.003611
 C         3.735181        -0.715011        -1.413187
 C         2.228282        -0.410971        -1.300381
 O         1.528745        -0.138904        -2.500173
 H        -0.020681        -1.556707         0.389821
 H        -0.340056         0.087674         0.783173
 H        -0.286349        -0.093931        -0.885630
 H         2.396780         1.776697        -0.098180
 H         2.117124        -0.567709         2.092207
 H         3.250107        -2.835691         1.001747
 H         2.611506        -2.781585        -1.578985
 H         4.410783        -0.394656        -0.540379
 H         4.184103        -0.865776        -2.458540
 H         1.614575         0.808446        -2.667179
