19
Iteration:  1001
 C         0.127160        -0.203987        -0.119535
 C         1.632149         0.038171        -0.040648
 O         1.835613         1.433220         0.351367
 C         2.109883        -0.944584         1.044207
 C         2.844782        -1.961953         0.533625
 C         2.941777        -1.815446        -1.009135
 C         3.728470        -0.563217        -1.290905
 C         2.308634        -0.475005        -1.317865
 O         1.492824        -0.357201        -2.445963
 H        -0.407533        -0.073058        -1.043593
 H        -0.129594        -1.237746         0.156843
 H        -0.427077         0.448262         0.639696
 H         2.546839         1.836927        -0.223516
 H         1.792022        -0.676515         2.059715
 H         3.189398        -2.837494         1.155831
 H         2.770165        -2.642974        -1.725173
 H         4.410693        -0.296611        -0.532824
 H         4.156129        -0.659689        -2.316663
 H         1.642806        -1.139815        -3.029709
