19
Iteration:  4358
 C        -0.063768        -0.074011        -0.035826
 C         1.509504        -0.043439         0.054628
 O         1.977137         1.342762         0.397092
 C         2.181968        -1.063589         1.035251
 C         3.074525        -1.865270         0.506987
 C         2.999074        -1.756668        -1.001874
 C         3.673721        -0.434929        -1.538214
 C         2.199770        -0.450922        -1.300897
 O         1.481101        -0.575284        -2.517300
 H        -0.299213        -0.857476        -0.843619
 H        -0.420420        -0.425219         0.899706
 H        -0.376892         1.016239        -0.255022
 H         2.434467         1.155731         1.305436
 H         1.951467        -0.916435         2.071423
 H         3.665161        -2.612560         0.982389
 H         2.953468        -2.573430        -1.658382
 H         4.182362         0.269533        -0.787341
 H         3.876797        -0.452186        -2.630486
 H         0.923087         0.188270        -2.587379
