19
Iteration:   199charge 0 multiplicity 1
 C         0.092087        -0.210478        -0.183168
 C         1.607566        -0.018536        -0.017496
 O         1.972123         1.413374         0.099487
 C         2.109140        -0.990146         1.153239
 C         2.853841        -1.982002         0.616685
 C         2.955640        -1.762359        -0.861872
 C         3.654671        -0.484911        -1.419228
 C         2.267533        -0.527965        -1.283419
 O         1.480027        -0.411871        -2.401346
 H        -0.415507        -0.499157         0.788929
 H        -0.212455         0.858078        -0.393589
 H        -0.285561        -0.849503        -0.916067
 H         1.805173         1.626378         1.015696
 H         1.732703        -0.810629         2.197770
 H         3.503483        -2.698189         1.123062
 H         3.125009        -2.587172        -1.562988
 H         4.138476         0.122433        -0.700159
 H         4.021006        -0.707424        -2.449630
 H         1.983512         0.049566        -3.115219
