19
Iteration:  3439
 C        -0.040143         0.114043         0.044704
 C         1.536935        -0.051659         0.018698
 O         1.901596         1.292685         0.376685
 C         2.116307        -0.999146         0.983860
 C         3.062472        -1.875977         0.476925
 C         3.150740        -1.765693        -0.951485
 C         3.705769        -0.363948        -1.481265
 C         2.191176        -0.575356        -1.388657
 O         1.387187        -0.724439        -2.512249
 H        -0.418327         1.041398        -0.341994
 H        -0.469737        -0.696056        -0.635923
 H        -0.520690         0.099320         1.050886
 H         2.106425         1.382194         1.340546
 H         1.968931        -0.909528         2.112433
 H         3.656374        -2.438468         1.149823
 H         3.421143        -2.553458        -1.631250
 H         4.242495         0.282722        -0.695278
 H         4.309067        -0.413450        -2.426164
 H         1.515356         0.121526        -2.976763
