19
Iteration:  1079charge 0 multiplicity 1
 C        -0.046575        -0.168276         0.012066
 C         1.482515        -0.048308        -0.012348
 O         1.860782         1.307121         0.093066
 C         2.154708        -0.950198         1.081969
 C         2.838512        -1.945717         0.528462
 C         3.060464        -1.850763        -0.933316
 C         3.797747        -0.517531        -1.296120
 C         2.314763        -0.506944        -1.256827
 O         1.544500        -0.312176        -2.520621
 H        -0.404565         0.579893        -0.715927
 H        -0.593044        -1.057016        -0.044588
 H        -0.362391         0.171650         1.030271
 H         2.758545         1.348101        -0.146931
 H         1.943060        -0.740729         2.139552
 H         3.230898        -2.836598         1.021479
 H         3.328711        -2.704887        -1.573267
 H         4.392112         0.008699        -0.479278
 H         4.215163        -0.435375        -2.261121
 H         0.896625         0.409885        -2.406915
