19
Iteration:  1751charge 0 multiplicity 1
 C         0.002038        -0.060697        -0.112702
 C         1.527969        -0.057543         0.012501
 O         1.998459         1.373041         0.361530
 C         2.153705        -0.949244         1.005540
 C         2.975551        -1.859179         0.553947
 C         3.093769        -1.851993        -0.913372
 C         3.630066        -0.650219        -1.551200
 C         2.229751        -0.501516        -1.276849
 O         1.429516        -0.416257        -2.418754
 H        -0.145643         0.051101        -1.181384
 H        -0.403581        -1.018137         0.231830
 H        -0.564589         0.636977         0.555556
 H         1.154084         1.777775         0.783665
 H         2.010127        -0.761216         2.109713
 H         3.465960        -2.718779         1.063765
 H         2.949041        -2.745791        -1.542165
 H         4.376874        -0.128889        -0.995183
 H         4.123531        -0.547021        -2.465918
 H         1.951427         0.119994        -3.036820
