19
Iteration:   252
 C         0.036223        -0.044400        -0.063005
 C         1.549413        -0.042599        -0.080981
 O         1.813611         1.300733         0.333058
 C         2.136448        -0.951231         1.005337
 C         2.931088        -1.955890         0.589938
 C         2.983907        -1.766573        -0.872109
 C         3.756307        -0.487521        -1.288846
 C         2.245730        -0.566944        -1.320035
 O         1.529702        -0.494445        -2.610765
 H        -0.294475         0.832616         0.575952
 H        -0.426001         0.177196        -1.057765
 H        -0.253080        -0.916904         0.419437
 H         2.637924         1.581452        -0.015720
 H         2.082372        -0.637997         2.077501
 H         3.386872        -2.676433         1.273227
 H         2.939792        -2.593322        -1.590914
 H         4.225796        -0.057057        -0.447622
 H         4.132070        -0.487121        -2.320037
 H         1.516802         0.459318        -2.899221
