19
Iteration:   737
 C        -0.011076        -0.102751        -0.044941
 C         1.591019        -0.032124        -0.015461
 O         1.873412         1.319800         0.159785
 C         2.049783        -0.919082         1.118079
 C         2.874986        -1.847613         0.538646
 C         2.985144        -1.825971        -0.976705
 C         3.750702        -0.531158        -1.267663
 C         2.222484        -0.576214        -1.293627
 O         1.593449        -0.467226        -2.534340
 H        -0.431415         0.586199         0.704547
 H        -0.415198         0.190135        -1.031400
 H        -0.274642        -1.086953         0.250379
 H         2.881497         1.530098         0.185028
 H         1.877453        -0.723046         2.199897
 H         3.437211        -2.561119         1.217344
 H         3.044101        -2.758123        -1.609483
 H         4.418364        -0.081641        -0.511481
 H         4.216888        -0.406602        -2.309784
 H         1.330814         0.493520        -2.591871
