19
Iteration:  3018charge 0 multiplicity 1
 C         0.007313        -0.273411         0.173982
 C         1.581628        -0.003156         0.050477
 O         1.906408         1.405144         0.043112
 C         2.231225        -0.925130         1.081413
 C         2.908161        -1.936380         0.500260
 C         2.976873        -1.819556        -1.000406
 C         3.692005        -0.494851        -1.394728
 C         2.217377        -0.523979        -1.300115
 O         1.514963        -0.418136        -2.482779
 H        -0.556242         0.266455        -0.626676
 H        -0.163432        -1.398924         0.224682
 H        -0.227009         0.153762         1.133966
 H         1.319050         1.877866         0.629837
 H         1.894996        -0.859347         2.112306
 H         3.428647        -2.796437         0.922904
 H         3.004165        -2.693963        -1.625698
 H         4.338369         0.132647        -0.712746
 H         4.122149        -0.408473        -2.350745
 H         1.840703         0.461694        -2.797373
