19
Iteration:  2568charge 0 multiplicity 1
 C         0.071590        -0.054321         0.110961
 C         1.575634         0.021766        -0.009613
 O         1.906387         1.415213         0.205912
 C         2.166744        -0.930264         1.091949
 C         2.790736        -1.967814         0.465709
 C         3.027967        -1.772880        -0.990926
 C         3.696002        -0.457258        -1.381014
 C         2.233772        -0.538128        -1.297606
 O         1.525910        -0.618421        -2.537297
 H        -0.560194         0.854625         0.042016
 H        -0.250603        -0.886550        -0.387379
 H        -0.119065        -0.432470         1.128706
 H         2.886881         1.590516         0.014197
 H         2.006435        -0.736824         2.215863
 H         3.176067        -2.950791         0.841728
 H         3.080604        -2.664054        -1.571922
 H         4.273025         0.073753        -0.604848
 H         4.109586        -0.447333        -2.345617
 H         0.846486         0.046283        -2.694148
