19
Iteration:  1442
 C         0.106101        -0.083812        -0.192466
 C         1.596737         0.000126        -0.036639
 O         1.977351         1.306735         0.455594
 C         2.176358        -0.878074         1.057647
 C         2.811410        -2.005158         0.589517
 C         3.027695        -1.805907        -0.936932
 C         3.810052        -0.480676        -1.469074
 C         2.283611        -0.510068        -1.326949
 O         1.291348        -0.504875        -2.447318
 H        -0.410765         0.434622        -1.015407
 H        -0.085763        -1.167568        -0.415567
 H        -0.376348         0.346318         0.659100
 H         1.315894         1.983653         0.441182
 H         1.798952        -0.728703         2.059424
 H         3.356912        -2.736587         1.128316
 H         3.143288        -2.694556        -1.577268
 H         4.470745         0.094676        -0.859077
 H         4.157011        -0.607464        -2.582072
 H         1.702885         0.212938        -2.964904
