19
Iteration:  2682charge 0 multiplicity 1
 C         0.063880        -0.127568        -0.031260
 C         1.644112         0.076439         0.044603
 O         1.814629         1.478754         0.410570
 C         2.226015        -0.899281         0.989226
 C         2.845489        -1.925091         0.443141
 C         3.008645        -1.795826        -1.019362
 C         3.763453        -0.634515        -1.476449
 C         2.248870        -0.482176        -1.315211
 O         1.420711        -0.602218        -2.461665
 H        -0.584912         0.115883        -0.875089
 H        -0.123476        -1.216307         0.352191
 H        -0.344354         0.340690         0.865151
 H         2.681677         1.659137         0.731009
 H         2.002602        -0.844468         2.048530
 H         3.254601        -2.728745         1.102613
 H         2.962525        -2.720616        -1.662293
 H         4.491901        -0.032246        -0.822852
 H         4.098383        -0.618400        -2.477557
 H         1.300386         0.288359        -2.844785
