19
Iteration:  2179charge 0 multiplicity 1
 C         0.040413        -0.200941         0.035769
 C         1.593655         0.046126        -0.038491
 O         1.750505         1.365037         0.455714
 C         2.348684        -0.755126         1.080731
 C         2.858464        -1.829715         0.515951
 C         2.832193        -1.823351        -0.976466
 C         3.739685        -0.732761        -1.465467
 C         2.305893        -0.491555        -1.383793
 O         1.461139        -0.473647        -2.575236
 H        -0.413365         0.375846        -0.789630
 H        -0.108602        -1.205957        -0.106469
 H        -0.332960         0.262605         0.939579
 H         2.725136         1.372703         0.695529
 H         2.161894        -0.597173         2.167893
 H         3.648548        -2.378885         0.997562
 H         2.586470        -2.702227        -1.590579
 H         4.450245        -0.235810        -0.753434
 H         4.293097        -0.761143        -2.423887
 H         2.075895        -0.130732        -3.224833
