19
Iteration:  1580charge 0 multiplicity 1
 C         0.061534        -0.136516        -0.063366
 C         1.656875         0.028861        -0.025866
 O         1.905696         1.436730         0.348207
 C         2.145199        -0.946092         0.944746
 C         2.818377        -1.999103         0.517801
 C         3.003507        -1.820709        -0.936167
 C         3.827350        -0.539509        -1.421275
 C         2.285105        -0.555000        -1.256754
 O         1.367243        -0.403022        -2.414682
 H        -0.318313         0.243932        -0.977646
 H        -0.174444        -1.213015        -0.075485
 H        -0.316423         0.444341         0.718434
 H         1.098810         2.057540         0.354554
 H         2.058480        -0.726458         1.983374
 H         3.107610        -2.881209         1.065986
 H         3.182701        -2.735320        -1.513825
 H         4.460947        -0.138293        -0.658985
 H         4.212462        -0.671087        -2.472718
 H         1.860700        -0.486490        -3.245358
