19
Iteration:  1511
 C        -0.024215        -0.146873         0.131473
 C         1.459953        -0.024237        -0.027953
 O         2.013044         1.291512         0.317458
 C         2.166512        -0.876960         0.995158
 C         2.880904        -1.888965         0.531142
 C         2.989134        -1.829017        -0.959704
 C         3.808642        -0.538519        -1.352887
 C         2.141885        -0.665745        -1.333942
 O         1.524282        -0.371872        -2.595184
 H        -0.438432         0.652068        -0.456085
 H        -0.281652        -1.014467        -0.327865
 H        -0.314110         0.143889         1.136372
 H         1.845251         1.951872        -0.455380
 H         1.997793        -0.555412         2.071833
 H         3.254040        -2.664646         1.247266
 H         3.169229        -2.711373        -1.576270
 H         4.473232        -0.101453        -0.589265
 H         4.010095        -0.511597        -2.367726
 H         1.730458         0.542481        -2.822517
