19
Iteration:  1244charge 0 multiplicity 1
 C         0.071904        -0.107316         0.058398
 C         1.559899        -0.010865         0.013576
 O         1.860008         1.469924         0.220840
 C         2.091817        -1.000920         1.010312
 C         2.820412        -1.978489         0.536060
 C         3.026989        -1.722771        -0.908049
 C         3.803798        -0.509843        -1.348820
 C         2.109980        -0.535970        -1.282983
 O         1.639157        -0.529848        -2.571715
 H        -0.454560         0.678181        -0.535750
 H        -0.297033        -1.167955        -0.147474
 H        -0.256884        -0.039656         1.099562
 H         2.690067         1.521016        -0.427192
 H         1.737253        -1.102119         2.093389
 H         3.041128        -2.926385         1.134766
 H         3.150272        -2.489201        -1.680047
 H         4.206240        -0.020539        -0.432787
 H         4.335617        -0.541873        -2.357530
 H         1.160937         0.254557        -2.859922
