19
Iteration:  4261
 C        -0.041366         0.013229         0.088305
 C         1.516591        -0.022208         0.038168
 O         1.957302         1.316223         0.452644
 C         2.143557        -1.039646         1.035968
 C         2.945585        -2.057934         0.468468
 C         3.126940        -1.682111        -0.977098
 C         3.689994        -0.278045        -1.399278
 C         2.096655        -0.568945        -1.336746
 O         1.467792        -0.610056        -2.639320
 H        -0.218496        -0.913812         0.764736
 H        -0.230143         0.983614         0.550139
 H        -0.415741        -0.112582        -1.001477
 H         2.797783         1.250588        -0.066333
 H         2.006305        -0.992563         2.096401
 H         3.366420        -2.963852         0.972009
 H         3.411101        -2.458952        -1.657687
 H         4.295618         0.501065        -0.820654
 H         3.826695        -0.310020        -2.505261
 H         1.730793         0.148633        -3.136263
