19
Iteration:  3622
 C         0.080335        -0.293787         0.043503
 C         1.611118        -0.002415         0.054796
 O         1.791807         1.425558        -0.033317
 C         2.234107        -0.946177         1.123922
 C         2.819135        -2.042317         0.517586
 C         2.970411        -1.846199        -0.966961
 C         3.724054        -0.441413        -1.344522
 C         2.264374        -0.495843        -1.274611
 O         1.495148        -0.344215        -2.425990
 H        -0.384636         0.622066        -0.605011
 H         0.026241        -1.236697        -0.464825
 H        -0.299313        -0.419626         1.146868
 H         2.734654         1.606088         0.182516
 H         2.230884        -0.847473         2.216761
 H         3.352374        -2.834798         1.095075
 H         3.159204        -2.719836        -1.539822
 H         4.102650         0.226821        -0.534021
 H         4.109041        -0.571287        -2.378919
 H         1.043976         0.505165        -2.406757
