19
Iteration:  4861
 C         0.084086        -0.063656         0.082153
 C         1.580037         0.026414         0.080449
 O         1.921168         1.372362         0.342963
 C         2.060860        -1.073360         1.038926
 C         2.930762        -2.015149         0.466320
 C         3.110329        -1.679244        -1.029538
 C         3.693843        -0.295197        -1.538319
 C         2.156080        -0.505506        -1.299490
 O         1.390785        -0.637224        -2.482335
 H        -0.296717        -0.318070        -0.910751
 H        -0.396341        -0.834420         0.867528
 H        -0.335339         0.935284         0.288585
 H         2.798969         1.454854         0.564236
 H         1.873456        -1.132585         2.189162
 H         3.498178        -2.806544         1.055309
 H         3.080778        -2.561455        -1.669832
 H         4.369792         0.151485        -0.867229
 H         4.086315        -0.279259        -2.530426
 H         2.042290        -0.294061        -3.144252
