19
Iteration:  2074
 C         0.068874         0.006186         0.045376
 C         1.576323        -0.032031         0.082575
 O         1.836186         1.401104         0.342590
 C         2.256007        -0.964242         1.097864
 C         2.965814        -1.982248         0.517649
 C         2.926276        -1.749572        -0.942078
 C         3.647331        -0.555864        -1.502007
 C         2.140715        -0.499019        -1.311003
 O         1.615019        -0.535300        -2.649706
 H        -0.225310         0.715293        -0.733713
 H        -0.310133        -0.989027        -0.256501
 H        -0.392103         0.203641         1.076815
 H         2.764405         1.483428         0.352297
 H         1.926445        -0.783168         2.105012
 H         3.650686        -2.527216         1.114798
 H         2.766544        -2.682348        -1.514849
 H         4.199066         0.007041        -0.785826
 H         3.869030        -0.473722        -2.579455
 H         0.675321        -0.674058        -2.512325
