19
Iteration:  2210
 C         0.062692        -0.194268        -0.041461
 C         1.629805         0.077141        -0.013479
 O         1.744353         1.515039         0.353566
 C         2.245636        -0.856544         1.114617
 C         2.927854        -1.888686         0.573280
 C         2.900954        -1.839747        -0.902080
 C         3.692670        -0.748687        -1.619417
 C         2.271590        -0.550702        -1.308832
 O         1.522324        -0.425993        -2.509584
 H        -0.552923         0.320048        -0.815501
 H        -0.036664        -1.227251        -0.333908
 H        -0.319772        -0.147950         0.945453
 H         2.480001         1.491837         0.978073
 H         2.149164        -0.927100         2.222109
 H         3.615826        -2.668044         0.913788
 H         2.752757        -2.767346        -1.409298
 H         4.468631        -0.197329        -1.065716
 H         3.707016        -0.973144        -2.649141
 H         1.803220         0.510087        -2.704642
