19
Iteration:  4653charge 0 multiplicity 1
 C         0.020602         0.016874         0.004267
 C         1.526263        -0.044928         0.043393
 O         1.952317         1.320587         0.356184
 C         2.085242        -1.030323         1.054186
 C         2.951860        -1.963339         0.397180
 C         3.192710        -1.707487        -1.020664
 C         3.652950        -0.354713        -1.486289
 C         2.235557        -0.549179        -1.266961
 O         1.429214        -0.570499        -2.408523
 H        -0.330699        -0.807770        -0.641067
 H        -0.238613         0.018066         1.086016
 H        -0.210501         1.009671        -0.546559
 H         2.857998         1.541266        -0.005100
 H         1.788927        -1.164502         2.077050
 H         3.382578        -2.892024         0.839743
 H         2.921627        -2.495552        -1.830931
 H         4.336924         0.164379        -0.826402
 H         4.042129        -0.340774        -2.466273
 H         0.480443        -0.628396        -2.327310
