19
Iteration:   493
 C        -0.066936        -0.103200         0.002990
 C         1.558847        -0.007395         0.039826
 O         1.816955         1.422082         0.157244
 C         2.173101        -0.928461         1.097551
 C         2.896845        -1.917151         0.608577
 C         3.021406        -1.810604        -0.891463
 C         3.748599        -0.533362        -1.436460
 C         2.235829        -0.627131        -1.328699
 O         1.645245        -0.325947        -2.527506
 H        -0.442969        -0.568605         0.887153
 H        -0.565879         0.883903         0.010088
 H        -0.500431        -0.604977        -0.908417
 H         2.734836         1.232518         0.182332
 H         1.718175        -1.095228         2.078047
 H         3.226292        -2.802308         1.168140
 H         2.899881        -2.825413        -1.386330
 H         4.393361        -0.133964        -0.725214
 H         4.211741        -0.491498        -2.458165
 H         1.237043        -1.177175        -2.817661
