19
Iteration:   928
 C        -0.008728         0.047521        -0.000500
 C         1.499036        -0.034521        -0.057345
 O         1.953170         1.333754         0.210881
 C         2.019813        -1.020000         1.136341
 C         2.925061        -1.825632         0.561856
 C         3.028377        -1.836517        -0.925586
 C         3.702939        -0.466634        -1.278071
 C         2.220793        -0.581667        -1.287622
 O         1.584961        -0.578243        -2.693468
 H        -0.371003         0.990348         0.454791
 H        -0.558860        -0.040085        -0.902495
 H        -0.437522        -0.653013         0.708611
 H         2.830462         1.425480         0.467290
 H         1.920691        -0.947186         2.235958
 H         3.644850        -2.545349         1.044233
 H         3.085693        -2.706764        -1.598825
 H         4.304135        -0.149636        -0.404941
 H         4.234146        -0.364050        -2.199890
 H         1.203843         0.313733        -2.668046
