19
Iteration:  3974
 C         0.049137        -0.111000        -0.150620
 C         1.590844        -0.026643        -0.024071
 O         2.059177         1.316945         0.244174
 C         2.150542        -0.948804         1.068000
 C         2.993847        -1.965300         0.552617
 C         3.065792        -1.785807        -0.902490
 C         3.593578        -0.262518        -1.466496
 C         2.170112        -0.586125        -1.300301
 O         1.332735        -0.556234        -2.406972
 H        -0.380300         0.850024        -0.093911
 H        -0.148844        -0.744869        -1.154488
 H        -0.420231        -0.731648         0.622363
 H         1.968898         1.393632         1.274981
 H         2.030527        -0.853777         2.192863
 H         3.634432        -2.617370         1.278172
 H         3.380895        -2.660340        -1.550192
 H         4.205415         0.149150        -0.777549
 H         3.902999        -0.275868        -2.497123
 H         1.303901         0.359598        -2.796566
