19
Iteration:  1325
 C         0.060980        -0.266976        -0.164942
 C         1.618102         0.020338         0.032444
 O         1.950991         1.360432         0.217793
 C         2.142057        -0.887586         1.127001
 C         2.780329        -1.910133         0.550252
 C         2.942197        -1.726559        -0.898339
 C         3.811265        -0.534208        -1.495225
 C         2.269513        -0.547278        -1.217340
 O         1.450597        -0.442526        -2.418408
 H        -0.220789         0.282886        -1.057866
 H        -0.092009        -1.228565        -0.573138
 H        -0.704002         0.026700         0.582334
 H         1.960218         1.509186         1.230122
 H         2.049470        -0.626621         2.158387
 H         3.188218        -2.757853         0.999999
 H         2.827902        -2.552230        -1.605658
 H         4.613221         0.006773        -1.073402
 H         4.005191        -0.713044        -2.584523
 H         1.570484         0.406590        -2.850822
