19
Iteration:  4494
 C         0.068295        -0.211337         0.058928
 C         1.568196        -0.055183         0.035293
 O         1.759246         1.380080         0.396622
 C         2.286353        -0.931748         1.091085
 C         2.939320        -1.978536         0.520433
 C         2.954333        -1.807267        -1.030346
 C         3.722762        -0.535935        -1.567237
 C         2.190225        -0.504513        -1.305118
 O         1.589546        -0.287364        -2.524044
 H        -0.303247        -1.088830        -0.451020
 H        -0.409329        -0.110759         1.173663
 H        -0.416445         0.527270        -0.516333
 H         2.559871         1.733659         0.098382
 H         2.107523        -0.714203         2.082769
 H         3.437539        -2.758692         1.022907
 H         2.687458        -2.711163        -1.583377
 H         4.299412         0.183051        -0.964416
 H         3.906341        -0.455935        -2.602239
 H         0.915166        -0.974454        -2.637906
