19
Iteration:  3888charge 0 multiplicity 1
 C         0.068155        -0.362076         0.139813
 C         1.613216         0.016626         0.065555
 O         1.817636         1.430506         0.194562
 C         2.371431        -0.833036         1.130342
 C         2.857035        -1.954996         0.502503
 C         2.878625        -1.837465        -1.008498
 C         3.805231        -0.631147        -1.362541
 C         2.220584        -0.513608        -1.353462
 O         1.509384        -0.280263        -2.618027
 H        -0.401932        -0.380665        -0.818278
 H        -0.075316        -1.539752         0.431587
 H        -0.626354         0.201992         0.805215
 H         0.955938         1.855503         0.182470
 H         2.571507        -0.695128         2.145738
 H         3.140952        -2.863796         1.118566
 H         2.837361        -2.698826        -1.723986
 H         4.148513        -0.104683        -0.568829
 H         4.265981        -0.618950        -2.335912
 H         1.302834         0.647649        -2.616966
