19
Iteration:  4737charge 0 multiplicity 1
 C         0.096282        -0.332588         0.165286
 C         1.645697         0.000117         0.017143
 O         1.671849         1.429300         0.259268
 C         2.342906        -0.875188         1.105919
 C         2.849122        -1.973272         0.421556
 C         2.880217        -1.783227        -1.056036
 C         3.793309        -0.732742        -1.438392
 C         2.237056        -0.422871        -1.322809
 O         1.570140        -0.246690        -2.521116
 H        -0.171659        -1.328764         0.607714
 H        -0.334422         0.391795         0.742146
 H        -0.410541        -0.131164        -0.848478
 H         2.564040         1.644840         0.344756
 H         2.379020        -0.802246         2.195356
 H         3.286574        -2.891554         0.953525
 H         2.654416        -2.552481        -1.867165
 H         4.464670        -0.315902        -0.609601
 H         4.091144        -0.317425        -2.432751
 H         0.584750        -0.359041        -2.397331
