19
Iteration:   783
 C         0.081793        -0.156771         0.009085
 C         1.598738         0.006214         0.041044
 O         1.797861         1.486921         0.116685
 C         2.127747        -0.864436         1.098429
 C         2.651778        -1.942155         0.440272
 C         3.088002        -1.852873        -0.955905
 C         3.791480        -0.546088        -1.344865
 C         2.284626        -0.605520        -1.265226
 O         1.616551        -0.428834        -2.460883
 H        -0.307179         0.684046         0.575630
 H        -0.327245        -0.010106        -0.988427
 H        -0.238474        -1.032380         0.526802
 H         2.803107         1.614145         0.092987
 H         1.708509        -0.896768         2.113031
 H         2.778363        -2.890151         0.930245
 H         3.206549        -2.646664        -1.662869
 H         4.293169        -0.033729        -0.447543
 H         4.232558        -0.299668        -2.249258
 H         0.848311        -1.058481        -2.446319
