19
Iteration:   551
 C         0.071140        -0.111218        -0.198304
 C         1.579392        -0.001516         0.031695
 O         1.963468         1.395172         0.421171
 C         2.109228        -0.927578         1.092410
 C         2.816350        -1.967900         0.572016
 C         3.127985        -1.809758        -0.895791
 C         3.728218        -0.495510        -1.367557
 C         2.217737        -0.563582        -1.364055
 O         1.454524        -0.429963        -2.557168
 H        -0.409056         0.474965         0.573711
 H        -0.334551         0.238004        -1.126322
 H        -0.374202        -1.086136         0.026082
 H         1.890993         1.948112        -0.447361
 H         1.973127        -0.769459         2.176811
 H         3.156058        -2.784018         1.207808
 H         3.346545        -2.558547        -1.613178
 H         4.276407         0.248332        -0.660807
 H         4.062329        -0.510645        -2.389021
 H         1.044734        -1.303800        -2.792061
