19
Iteration:  1658charge 0 multiplicity 1
 C         0.045376        -0.018942        -0.005320
 C         1.553468        -0.068557        -0.053562
 O         1.887756         1.344008         0.191150
 C         2.170040        -0.969858         1.051884
 C         2.910538        -1.986750         0.546148
 C         3.008727        -1.754780        -0.938216
 C         3.844778        -0.504730        -1.266885
 C         2.254585        -0.613513        -1.308512
 O         1.318141        -0.407683        -2.461069
 H        -0.224263         0.944247        -0.401069
 H        -0.277775        -0.881465        -0.659135
 H        -0.317629        -0.341130         0.918507
 H         2.515415         1.649042        -0.445112
 H         1.704129        -0.842446         2.099393
 H         3.400306        -2.755462         1.131353
 H         3.055724        -2.679960        -1.501207
 H         4.624070         0.024556        -0.567168
 H         4.171992        -0.545561        -2.284055
 H         1.709064         0.260927        -3.058501
