19
Iteration:   409charge 0 multiplicity 1
 C         0.034857        -0.165461        -0.102698
 C         1.669561         0.049520        -0.034351
 O         1.771093         1.514173         0.311589
 C         2.118842        -0.997522         1.098279
 C         2.773699        -2.074978         0.610005
 C         2.988826        -1.741903        -0.935747
 C         3.784381        -0.477131        -1.438551
 C         2.314502        -0.537427        -1.309122
 O         1.507022        -0.527502        -2.451091
 H        -0.155009        -0.550846         0.879240
 H        -0.386510         0.801518        -0.341428
 H        -0.193922        -1.028338        -0.836549
 H         2.616579         1.961993        -0.026083
 H         1.830966        -0.648996         2.108327
 H         3.228191        -2.924940         1.217709
 H         2.976237        -2.631250        -1.629350
 H         4.307246         0.239260        -0.808559
 H         4.105662        -0.581336        -2.568528
 H         2.110728        -0.272534        -3.190837
