19
Iteration:  4933
 C        -0.084354         0.044483         0.001846
 C         1.466472        -0.073052         0.072668
 O         1.929169         1.341180         0.290393
 C         2.153199        -1.120094         1.043909
 C         3.058234        -1.861029         0.501450
 C         3.201642        -1.778329        -1.007761
 C         3.641452        -0.414005        -1.546575
 C         2.165645        -0.580633        -1.234029
 O         1.446883        -0.536944        -2.461086
 H        -0.363787         0.295374        -1.024598
 H        -0.555714        -0.819102         0.336651
 H        -0.372770         0.953530         0.645949
 H         2.819169         1.320198         0.381306
 H         1.974061        -0.978989         2.180836
 H         3.659999        -2.604460         0.996612
 H         3.608712        -2.517235        -1.648424
 H         4.397872        -0.080742        -0.729830
 H         3.943514        -0.363095        -2.633908
 H         0.756165         0.121611        -2.534567
