19
Iteration:   310charge 0 multiplicity 1
 C        -0.013790        -0.081457        -0.031357
 C         1.606420        -0.038448        -0.100006
 O         1.856677         1.329189         0.243511
 C         2.105809        -0.982341         0.981421
 C         2.826360        -1.971235         0.581535
 C         3.092464        -1.725195        -0.849999
 C         3.736802        -0.519547        -1.316467
 C         2.289833        -0.448835        -1.330616
 O         1.487434        -0.501934        -2.490253
 H        -0.294594         0.846687         0.384980
 H        -0.414811        -0.410882        -0.985989
 H        -0.264889        -0.964890         0.654206
 H         2.889034         1.366018         0.307366
 H         1.638270        -0.935711         1.938192
 H         3.264345        -2.765061         1.161785
 H         3.167070        -2.410988        -1.695571
 H         4.298668         0.208953        -0.635271
 H         4.213660        -0.542859        -2.309950
 H         1.381688         0.384518        -2.869972
