19
Iteration:  4676
 C        -0.013227        -0.087818         0.065690
 C         1.556669        -0.073879         0.030600
 O         1.927992         1.295128         0.247845
 C         2.158757        -1.012117         1.000235
 C         2.975086        -2.015694         0.502383
 C         2.986652        -1.785185        -0.964945
 C         3.751664        -0.429054        -1.402203
 C         2.271057        -0.502905        -1.338727
 O         1.382393        -0.318937        -2.464227
 H        -0.358628        -0.944849        -0.511010
 H        -0.333491        -0.136772         1.163519
 H        -0.380444         0.807634        -0.441754
 H         2.689011         1.575073        -0.327593
 H         2.160250        -0.836913         2.047250
 H         3.558785        -2.632861         1.155180
 H         3.460665        -2.526943        -1.640216
 H         4.325858         0.118424        -0.711769
 H         4.139020        -0.398579        -2.400549
 H         0.643208        -0.949118        -2.370928
