19
Iteration:  1054charge 0 multiplicity 1
 C         0.072411        -0.117369         0.161966
 C         1.508654         0.002309        -0.101289
 O         1.767551         1.379567         0.129620
 C         2.077639        -1.019902         0.984675
 C         2.919175        -1.959107         0.532494
 C         3.003174        -1.890208        -0.915850
 C         3.742024        -0.516758        -1.264518
 C         2.214162        -0.690828        -1.306667
 O         1.713019        -0.233591        -2.590203
 H        -0.566042         0.054968        -0.703796
 H        -0.399655        -0.991520         0.676363
 H        -0.149819         0.624710         0.990872
 H         2.729948         1.568444         0.158923
 H         1.718768        -0.875294         2.016860
 H         3.682547        -2.601439         1.067178
 H         2.873462        -2.775840        -1.550839
 H         4.013468         0.087696        -0.439951
 H         4.309057        -0.369125        -2.189444
 H         0.771604         0.055998        -2.544468
