19
Iteration:  2103
 C        -0.022224        -0.053424         0.103056
 C         1.542645        -0.057617        -0.060655
 O         1.979954         1.327244         0.118748
 C         2.182873        -0.927356         1.012350
 C         2.844930        -1.955634         0.532419
 C         3.089020        -1.792712        -0.995796
 C         3.704729        -0.487033        -1.316967
 C         2.197358        -0.618240        -1.343808
 O         1.451313        -0.421951        -2.485845
 H        -0.692095         0.677801        -0.456419
 H        -0.241888        -1.073051        -0.028077
 H        -0.123291         0.094590         1.199629
 H         2.934500         1.262917         0.197093
 H         1.884513        -0.700130         2.125254
 H         3.618578        -2.547954         1.101893
 H         3.337895        -2.716182        -1.474911
 H         4.191587         0.149207        -0.446062
 H         4.169762        -0.140691        -2.207203
 H         0.661437         0.019552        -2.104356
