19
Iteration:  2126
 C         0.058714        -0.129483         0.045468
 C         1.611689        -0.053103         0.001242
 O         1.930148         1.338741        -0.000044
 C         2.116721        -1.045005         1.097843
 C         2.895321        -1.951609         0.541674
 C         3.026184        -1.739879        -0.934979
 C         3.733156        -0.429905        -1.367031
 C         2.232299        -0.581191        -1.285129
 O         1.382746        -0.392257        -2.406495
 H        -0.392482         0.584041        -0.705975
 H        -0.286917        -1.133671        -0.076933
 H        -0.202795         0.240255         1.096516
 H         2.867923         1.324019        -0.303094
 H         2.006588        -0.903702         2.206716
 H         3.007997        -2.873574         1.100758
 H         3.329965        -2.530445        -1.645113
 H         4.428205         0.086643        -0.608787
 H         4.196294        -0.455891        -2.370894
 H         1.059462         0.489255        -2.168000
