19
Iteration:  2544charge 0 multiplicity 1
 C         0.034369        -0.118978         0.127770
 C         1.542657         0.069607        -0.064838
 O         1.818472         1.439978         0.347242
 C         2.249340        -0.829396         1.012615
 C         2.914885        -1.930398         0.522612
 C         2.918785        -1.852549        -0.996716
 C         3.772801        -0.636290        -1.380528
 C         2.227474        -0.568523        -1.366525
 O         1.500534        -0.547072        -2.590449
 H        -0.557861         0.799487        -0.134276
 H        -0.321541        -1.012111        -0.284428
 H        -0.193279        -0.231849         1.153489
 H         2.815001         1.514114         0.471932
 H         1.962395        -0.653642         2.064137
 H         3.638998        -2.499108         1.178112
 H         2.659157        -2.779740        -1.591558
 H         4.313496        -0.016612        -0.626680
 H         4.187202        -0.511076        -2.350678
 H         1.577788         0.309517        -3.031670
