19
Iteration:  4299
 C         0.020767         0.112871        -0.012089
 C         1.466359        -0.073975         0.010137
 O         2.020678         1.230333         0.412672
 C         1.995422        -1.156841         0.924957
 C         3.003228        -1.913018         0.390608
 C         3.169931        -1.581819        -1.012306
 C         3.770234        -0.250165        -1.385672
 C         2.192898        -0.506772        -1.265740
 O         1.374230        -0.758512        -2.417138
 H        -0.433265        -0.808363         0.139568
 H        -0.312601         0.717796         0.805773
 H        -0.491544         0.476531        -0.832208
 H         2.822999         1.351642         0.009154
 H         1.627492        -1.069287         1.960348
 H         3.614700        -2.625350         0.924934
 H         3.197734        -2.472676        -1.728672
 H         4.471962         0.195166        -0.732189
 H         3.999743        -0.140157        -2.428303
 H         0.873500         0.057694        -2.622851
