19
Iteration:  1561charge 0 multiplicity 1
 C         0.045383        -0.111574        -0.037078
 C         1.589907         0.005373         0.060007
 O         1.954817         1.387730         0.143107
 C         2.216927        -0.994132         1.123379
 C         2.780620        -2.017432         0.440188
 C         3.053173        -1.821248        -0.972169
 C         3.740521        -0.509813        -1.365693
 C         2.277658        -0.523368        -1.250306
 O         1.433882        -0.386514        -2.381621
 H        -0.387007         0.256997        -1.035817
 H        -0.258914        -1.239796         0.122928
 H        -0.339905         0.598048         0.751633
 H         1.098774         1.795244        -0.093241
 H         1.779541        -0.965264         2.186877
 H         3.232575        -2.913918         0.955765
 H         2.900395        -2.528032        -1.787332
 H         4.307564         0.006797        -0.472060
 H         4.176115        -0.358684        -2.370336
 H         1.943095        -0.192536        -3.199685
