19
Iteration:  3726charge 0 multiplicity 1
 C        -0.043669         0.072539        -0.139297
 C         1.513348        -0.112217        -0.022617
 O         1.959066         1.331695         0.362893
 C         2.000457        -1.090402         0.992621
 C         3.058177        -1.910801         0.523935
 C         3.188625        -1.674147        -0.946994
 C         3.768125        -0.338849        -1.450815
 C         2.271768        -0.519548        -1.312872
 O         1.287689        -0.696060        -2.386859
 H        -0.286553         0.498689        -1.053381
 H        -0.495626        -0.978618        -0.082971
 H        -0.294229         0.719860         0.693846
 H         2.797391         1.121246         0.938592
 H         1.718875        -1.111912         2.103800
 H         3.705768        -2.459874         1.177144
 H         3.286638        -2.556710        -1.559635
 H         4.251127         0.468734        -0.852041
 H         4.094299        -0.274872        -2.476129
 H         1.300401         0.083544        -3.013441
