19
Iteration:  1992
 C         0.013190        -0.056888         0.039652
 C         1.563701        -0.019022         0.022185
 O         1.968814         1.317136         0.093489
 C         2.276761        -0.914819         1.133009
 C         2.880763        -1.987255         0.501762
 C         3.070744        -1.803002        -1.014935
 C         3.630619        -0.445763        -1.348838
 C         2.121773        -0.656528        -1.226840
 O         1.435081        -0.319010        -2.467255
 H        -0.589862         0.654538        -0.533658
 H        -0.303691        -1.115170        -0.267767
 H        -0.364400         0.134791         0.994323
 H         2.926872         1.281416         0.425478
 H         1.912247        -0.937484         2.102361
 H         3.336995        -2.773055         1.110500
 H         3.045098        -2.762204        -1.563552
 H         4.296326         0.139875        -0.770510
 H         3.856213        -0.217999        -2.472301
 H         1.842575        -0.956334        -3.102218
