19
Iteration:  4731
 C         0.048924        -0.356423         0.123137
 C         1.629553        -0.017995         0.063240
 O         1.718862         1.421915         0.234717
 C         2.344531        -0.913202         1.064515
 C         2.813292        -2.001390         0.436191
 C         2.867573        -1.738277        -1.022766
 C         3.756405        -0.650622        -1.453330
 C         2.228032        -0.452760        -1.276430
 O         1.603402        -0.232451        -2.523813
 H        -0.069792        -1.330663         0.579803
 H        -0.247473         0.470242         0.923304
 H        -0.535203        -0.175494        -0.769965
 H         2.718388         1.731171         0.306640
 H         2.575587        -0.671983         2.109538
 H         3.433603        -2.721879         0.893132
 H         2.635118        -2.510729        -1.698778
 H         4.405733        -0.285717        -0.725062
 H         4.076900        -0.625180        -2.488748
 H         0.703132        -0.520651        -2.508339
