19
Iteration:  3455charge 0 multiplicity 1
 C        -0.048212         0.081378         0.114590
 C         1.461210        -0.073377         0.013735
 O         1.896761         1.331758         0.279895
 C         2.126483        -1.001280         1.083283
 C         3.016893        -1.882463         0.497178
 C         3.196255        -1.656495        -1.020402
 C         3.734049        -0.370266        -1.421671
 C         2.195300        -0.633129        -1.338759
 O         1.448957        -0.715756        -2.572404
 H        -0.149356         1.220316        -0.018474
 H        -0.768373        -0.417810        -0.501936
 H        -0.222752        -0.226297         1.127843
 H         2.550924         1.172649         0.919098
 H         1.799602        -1.032708         2.084057
 H         3.515026        -2.802897         0.950033
 H         3.194396        -2.641758        -1.559818
 H         4.031918         0.286783        -0.693762
 H         3.874497        -0.286486        -2.490995
 H         1.573295         0.099584        -3.061654
