19
Iteration:  4932charge 0 multiplicity 1
 C        -0.084429         0.045609        -0.012804
 C         1.473090        -0.067910         0.070676
 O         1.925404         1.340270         0.297274
 C         2.158926        -1.130536         1.047054
 C         3.071350        -1.859307         0.506393
 C         3.197233        -1.781073        -0.999685
 C         3.623588        -0.408997        -1.549159
 C         2.172461        -0.579193        -1.236761
 O         1.444249        -0.535591        -2.463619
 H        -0.380924         0.310385        -1.062994
 H        -0.591751        -0.829593         0.391142
 H        -0.329111         0.978032         0.646140
 H         2.861171         1.313210         0.408365
 H         1.949045        -0.972161         2.146002
 H         3.656742        -2.612512         0.997235
 H         3.636126        -2.534126        -1.629325
 H         4.381609        -0.085850        -0.717061
 H         3.938346        -0.395691        -2.647425
 H         0.729241         0.133433        -2.562040
