19
Iteration:  3490
 C         0.043078        -0.152367         0.032560
 C         1.514746        -0.010485         0.031620
 O         2.044604         1.337412         0.229905
 C         2.111513        -1.003440         1.083515
 C         2.900571        -1.878145         0.502010
 C         3.078734        -1.691868        -0.955043
 C         3.687850        -0.355420        -1.349122
 C         2.132982        -0.548747        -1.296692
 O         1.466859        -0.646563        -2.537791
 H        -0.647709         0.797890        -0.053883
 H        -0.314699        -0.832590        -0.642116
 H        -0.278832        -0.429559         1.062911
 H         2.509016         1.465483        -0.556563
 H         1.937496        -0.846127         2.157685
 H         3.474094        -2.629056         1.014645
 H         3.087644        -2.494314        -1.744575
 H         4.285952         0.246200        -0.664633
 H         4.083546        -0.101007        -2.359520
 H         1.163959         0.255702        -2.656088
