19
Iteration:   701charge 0 multiplicity 1
 C        -0.068230        -0.017296        -0.125748
 C         1.557812        -0.056377        -0.025153
 O         1.816271         1.337004         0.340718
 C         2.120174        -0.957349         1.186682
 C         2.954456        -1.856701         0.633351
 C         3.039462        -1.862077        -0.867237
 C         3.709386        -0.579978        -1.412594
 C         2.253061        -0.581088        -1.328322
 O         1.525868        -0.405726        -2.585270
 H        -0.610344        -0.109306         0.830935
 H        -0.384008         0.897038        -0.673480
 H        -0.459489        -0.832130        -0.860954
 H         2.692334         1.716661        -0.062033
 H         2.168327        -0.518062         2.153600
 H         3.785892        -2.305546         1.121110
 H         3.018833        -2.658643        -1.571385
 H         4.405058        -0.067026        -0.754539
 H         4.035730        -0.728370        -2.467251
 H         2.184201        -0.556407        -3.307993
