19
Iteration:  3275
 C         0.121550        -0.373013        -0.133648
 C         1.656106         0.012777        -0.033128
 O         1.855145         1.495098         0.191460
 C         2.292419        -0.830498         1.098471
 C         2.886861        -1.975359         0.557067
 C         2.979525        -1.797729        -0.954919
 C         3.718194        -0.622104        -1.433835
 C         2.271736        -0.479955        -1.321217
 O         1.316289        -0.355203        -2.338171
 H        -0.242994         0.111682        -1.031363
 H         0.099528        -1.536862        -0.326012
 H        -0.493822        -0.060690         0.778838
 H         1.327709         1.489408         0.999122
 H         2.153127        -0.606911         2.172295
 H         3.330706        -2.758205         1.289343
 H         2.876044        -2.791916        -1.520793
 H         4.533978        -0.141387        -0.803683
 H         4.034960        -0.764174        -2.507114
 H         1.633967         0.432990        -2.833107
