19
Iteration:  2835charge 0 multiplicity 1
 C         0.068778        -0.115479        -0.076610
 C         1.552112        -0.036638        -0.023267
 O         1.886808         1.351061         0.365947
 C         2.147190        -0.921339         1.039273
 C         2.986589        -1.901245         0.586616
 C         3.039483        -1.832335        -0.948796
 C         3.739023        -0.515958        -1.542123
 C         2.276824        -0.457585        -1.320537
 O         1.308589        -0.499710        -2.434273
 H        -0.454695         0.148966        -1.022663
 H        -0.176455        -1.171372         0.001551
 H        -0.450728         0.405314         0.661705
 H         2.802477         1.306975         0.732734
 H         1.784222        -0.741590         2.083771
 H         3.674074        -2.523815         1.145165
 H         3.078892        -2.645953        -1.586345
 H         4.286028         0.076836        -0.852953
 H         4.261260        -0.651559        -2.569734
 H         1.454684         0.350613        -2.854515
