19
Iteration:   114
 C        -0.011668        -0.120416        -0.025229
 C         1.546006        -0.013984        -0.032542
 O         1.945182         1.367297         0.139430
 C         2.126711        -0.924071         1.076782
 C         2.871660        -1.967409         0.563218
 C         3.000289        -1.808903        -0.879842
 C         3.720110        -0.482574        -1.374815
 C         2.248662        -0.546400        -1.307275
 O         1.533891        -0.470313        -2.527594
 H        -0.341266        -0.335504         1.013865
 H        -0.573106         0.793492        -0.306102
 H        -0.353994        -0.981162        -0.615808
 H         2.551549         1.491634         0.922105
 H         1.906049        -0.805517         2.180465
 H         3.478700        -2.732952         1.095339
 H         3.072932        -2.624288        -1.612332
 H         4.205607         0.257356        -0.781700
 H         4.309554        -0.671602        -2.334391
 H         1.173704         0.429767        -2.389059
