19
Iteration:  3459
 C        -0.038974         0.041226         0.114709
 C         1.471451        -0.092298         0.013242
 O         1.913318         1.342478         0.252267
 C         2.106856        -0.994112         1.079610
 C         3.020790        -1.898283         0.490434
 C         3.174735        -1.677913        -0.997131
 C         3.700037        -0.335284        -1.423434
 C         2.174366        -0.603407        -1.337689
 O         1.473415        -0.722973        -2.569088
 H        -0.216937         1.227757         0.097226
 H        -0.831593        -0.369892        -0.506135
 H        -0.259836        -0.206787         1.225407
 H         2.782838         1.168835         0.811567
 H         1.780389        -1.094738         2.155473
 H         3.434299        -2.727079         1.016581
 H         3.173258        -2.606892        -1.653461
 H         4.180616         0.348077        -0.628095
 H         3.935561        -0.301437        -2.538701
 H         1.636039         0.169174        -2.980023
