19
Iteration:   440charge 0 multiplicity 1
 C        -0.057546        -0.164697        -0.100247
 C         1.601765        -0.043791         0.009974
 O         1.874093         1.377590         0.169199
 C         2.163830        -0.874253         1.091793
 C         2.925775        -1.864629         0.551272
 C         2.969291        -1.748210        -0.973388
 C         3.763869        -0.577620        -1.248521
 C         2.216390        -0.564198        -1.276950
 O         1.538373        -0.474895        -2.485553
 H        -0.443510        -0.755946         0.669746
 H        -0.482975         0.799793         0.035221
 H        -0.287875        -0.763722        -1.033845
 H         2.799136         1.358481        -0.114794
 H         1.826586        -0.687554         2.112426
 H         3.230879        -2.836547         0.963534
 H         3.080823        -2.621453        -1.669187
 H         4.359604        -0.157133        -0.471061
 H         4.049487        -0.414241        -2.338968
 H         1.382466         0.494804        -2.521370
