19
Iteration:  1476charge 0 multiplicity 1
 C         0.122173        -0.066072        -0.134698
 C         1.576867         0.088336         0.029022
 O         1.871416         1.430089         0.490520
 C         2.219275        -0.950854         1.084462
 C         2.897142        -1.966736         0.516339
 C         2.863661        -1.786524        -0.984344
 C         3.789473        -0.566015        -1.516527
 C         2.253698        -0.503263        -1.246037
 O         1.482208        -0.602471        -2.483152
 H        -0.213683         0.750781        -0.789893
 H        -0.145608        -0.979724        -0.612260
 H        -0.426455        -0.213547         0.801250
 H         1.456053         2.120633        -0.119309
 H         1.828403        -1.100068         2.133606
 H         3.408895        -2.838073         0.985743
 H         2.642781        -2.551246        -1.731509
 H         4.614574        -0.275083        -0.841258
 H         4.049839        -0.456757        -2.580224
 H         1.578531         0.123272        -3.110056
