19
Iteration:  4974
 C         0.136435        -0.214217         0.143356
 C         1.589459         0.016715         0.014803
 O         1.885340         1.433693         0.266622
 C         2.225050        -0.968746         1.029112
 C         2.873093        -1.970827         0.535590
 C         3.032264        -1.724226        -1.022405
 C         3.656382        -0.466221        -1.341768
 C         2.166251        -0.511793        -1.389532
 O         1.397108        -0.543813        -2.527463
 H        -0.350171         0.603144        -0.499538
 H        -0.089670        -1.212573        -0.316866
 H        -0.280892        -0.276684         1.209748
 H         2.765944         1.591042        -0.275930
 H         2.096191        -0.623246         2.048112
 H         3.264209        -2.759621         1.164221
 H         3.225061        -2.569734        -1.666774
 H         4.100997         0.060228        -0.439629
 H         4.162294        -0.399770        -2.323895
 H         1.545773         0.229959        -3.138697
