19
Iteration:  4203
 C         0.066339        -0.308189        -0.033412
 C         1.572096        -0.029347         0.067191
 O         1.695945         1.451053         0.171175
 C         2.329453        -0.901338         1.103081
 C         2.879180        -2.049166         0.482773
 C         2.988889        -1.863351        -0.996828
 C         3.718685        -0.615486        -1.533439
 C         2.273223        -0.493909        -1.215680
 O         1.506271        -0.195008        -2.369891
 H        -0.389778        -1.230134         0.380119
 H        -0.598031         0.469339         0.378969
 H        -0.247617        -0.427900        -1.111967
 H         2.618820         1.582635         0.493270
 H         2.330387        -0.779475         2.244022
 H         3.470671        -2.797682         1.029167
 H         2.870628        -2.836519        -1.553749
 H         4.540672        -0.157312        -0.991190
 H         4.074927        -0.752201        -2.550033
 H         1.267934         0.782007        -2.406386
