19
Iteration:  1426charge 0 multiplicity 1
 C         0.028736        -0.101100        -0.060328
 C         1.615676        -0.046125        -0.009820
 O         2.076486         1.291712         0.310092
 C         2.023924        -1.022486         1.036336
 C         2.954702        -1.853082         0.567234
 C         3.018737        -1.730303        -0.915827
 C         3.745105        -0.518047        -1.409633
 C         2.201538        -0.535731        -1.329938
 O         1.401676        -0.455197        -2.490077
 H        -0.264119         0.475809        -0.950317
 H        -0.422285        -1.107388        -0.115247
 H        -0.415693         0.328371         0.896914
 H         1.316817         1.806250         0.172920
 H         1.851884        -0.891116         2.146264
 H         3.314249        -2.781681         1.107807
 H         2.916966        -2.554111        -1.611243
 H         4.234935         0.128930        -0.637862
 H         4.238252        -0.541222        -2.314260
 H         1.640689         0.239421        -3.131753
