19
Iteration:  3289charge 0 multiplicity 1
 C         0.151897        -0.382315        -0.013448
 C         1.633738         0.011969        -0.000027
 O         1.850847         1.390411         0.140467
 C         2.247808        -0.827735         1.019273
 C         2.857988        -1.950675         0.575621
 C         2.959187        -1.829571        -0.857854
 C         3.798944        -0.613839        -1.433765
 C         2.239655        -0.426647        -1.334144
 O         1.363986        -0.340178        -2.446115
 H        -0.409843         0.197350        -0.681021
 H        -0.021824        -1.506340        -0.285961
 H        -0.198769        -0.269142         1.017555
 H         1.583530         1.915991         0.972913
 H         2.163811        -0.568793         2.065346
 H         3.217599        -2.767576         1.078290
 H         2.901554        -2.602004        -1.660449
 H         4.193196         0.015243        -0.697635
 H         4.300102        -0.773258        -2.430967
 H         1.277898         0.594835        -2.745232
