19
Iteration:  2816
 C         0.164489        -0.246492        -0.128222
 C         1.677247         0.033013         0.062077
 O         1.843414         1.392954         0.402137
 C         2.182623        -0.870427         1.087043
 C         2.892445        -1.876584         0.488238
 C         2.901535        -1.656109        -0.984051
 C         3.736197        -0.551674        -1.503702
 C         2.212515        -0.484959        -1.310746
 O         1.418146        -0.606757        -2.409138
 H        -0.198988         0.444234        -1.053079
 H        -0.043732        -1.259173        -0.408771
 H        -0.428302         0.097103         0.833381
 H         2.768928         1.427996         0.533779
 H         2.114130        -0.739807         2.157531
 H         3.257086        -2.876450         0.788853
 H         2.575681        -2.489508        -1.633615
 H         4.494383        -0.084642        -0.907313
 H         3.864257        -0.667785        -2.598844
 H         1.317838         0.219203        -2.899928
