19
Iteration:  4196charge 0 multiplicity 1
 C         0.107272        -0.330321        -0.036235
 C         1.584415         0.002633         0.029903
 O         1.641558         1.438083         0.189309
 C         2.370716        -0.909221         1.140864
 C         2.863681        -2.013724         0.522598
 C         2.915568        -1.906965        -0.969917
 C         3.750274        -0.606054        -1.553041
 C         2.286438        -0.526364        -1.281787
 O         1.514192        -0.172661        -2.382734
 H        -0.108017        -1.321930         0.556406
 H        -0.491932         0.431100         0.421415
 H        -0.257038        -0.280068        -1.144114
 H         2.651298         1.634071         0.351572
 H         2.280822        -0.874960         2.198548
 H         3.289722        -2.863269         1.094377
 H         2.884749        -2.754889        -1.678034
 H         4.456329        -0.100945        -0.810953
 H         3.877997        -0.636958        -2.687486
 H         1.490488         0.820057        -2.219632
