19
Iteration:  1440charge 0 multiplicity 1
 C         0.090825        -0.077175        -0.179940
 C         1.600560        -0.005218        -0.033685
 O         1.993070         1.294909         0.440874
 C         2.165661        -0.889260         1.058548
 C         2.836439        -2.001437         0.593770
 C         3.012395        -1.790044        -0.942360
 C         3.821415        -0.475391        -1.462515
 C         2.285528        -0.519942        -1.320694
 O         1.285829        -0.499275        -2.460535
 H        -0.415196         0.431147        -1.032563
 H        -0.083452        -1.207678        -0.381717
 H        -0.366133         0.348582         0.700501
 H         1.240315         1.987353         0.413704
 H         1.724344        -0.670431         1.986622
 H         3.332247        -2.750904         1.167760
 H         3.115406        -2.679359        -1.567060
 H         4.472690         0.109766        -0.820700
 H         4.137930        -0.605278        -2.553236
 H         1.742484         0.212154        -2.929991
