19
Iteration:  2504
 C         0.077394        -0.199003        -0.165573
 C         1.625111        -0.032949         0.016083
 O         1.795349         1.442727         0.228221
 C         2.275245        -0.857911         1.116322
 C         2.969506        -1.916236         0.581953
 C         2.934592        -1.905255        -0.880148
 C         3.638215        -0.679069        -1.606395
 C         2.236502        -0.559645        -1.214761
 O         1.416899        -0.284012        -2.372052
 H        -0.353457         0.093150        -1.179239
 H        -0.053687        -1.290621        -0.038989
 H        -0.334613         0.357231         0.759299
 H         2.713593         1.552176         0.460310
 H         1.931360        -0.741366         2.219788
 H         3.663424        -2.623921         1.175941
 H         2.686059        -2.722774        -1.521497
 H         4.422745        -0.195435        -0.957567
 H         3.892308        -0.560374        -2.627035
 H         2.061262         0.210301        -2.937727
