19
Iteration:   932charge 0 multiplicity 1
 C         0.004825         0.025890         0.013919
 C         1.484836        -0.050411        -0.017400
 O         1.947809         1.345019         0.216531
 C         2.011922        -1.036325         1.091338
 C         2.952334        -1.795703         0.591328
 C         3.002808        -1.853028        -0.935627
 C         3.686770        -0.488122        -1.310315
 C         2.194566        -0.586458        -1.297338
 O         1.603784        -0.558828        -2.640145
 H        -0.306291         1.135286         0.245646
 H        -0.460714        -0.136099        -1.073932
 H        -0.487745        -0.702888         0.690047
 H         2.972069         1.437759         0.353846
 H         1.788827        -0.925680         2.165540
 H         3.672073        -2.438258         1.035207
 H         3.102862        -2.664319        -1.643407
 H         4.308742        -0.065431        -0.436545
 H         4.269565        -0.414979        -2.224021
 H         1.369995         0.405957        -2.754869
