19
Iteration:  4486charge 0 multiplicity 1
 C         0.043464        -0.202668         0.050987
 C         1.581736        -0.040871         0.032865
 O         1.726036         1.358182         0.402025
 C         2.300477        -0.903292         1.050484
 C         3.000962        -1.984796         0.532458
 C         2.953337        -1.828177        -0.989204
 C         3.655900        -0.556813        -1.527825
 C         2.233540        -0.509370        -1.323502
 O         1.590616        -0.249513        -2.546429
 H        -0.288399        -1.278007        -0.213905
 H        -0.252248        -0.027788         1.124240
 H        -0.429391         0.603755        -0.597276
 H         2.426072         1.642599        -0.112309
 H         2.106609        -0.856347         2.117963
 H         3.293616        -2.825366         1.112854
 H         2.915321        -2.630435        -1.658910
 H         4.525587        -0.098136        -0.988420
 H         3.850412        -0.515794        -2.627285
 H         0.671042        -0.620258        -2.541739
