19
Iteration:   822
 C        -0.040429        -0.089601        -0.102479
 C         1.455687        -0.040579        -0.037946
 O         1.899959         1.380862         0.307145
 C         2.170270        -0.864539         1.152059
 C         2.978116        -1.814346         0.600909
 C         2.935097        -1.885745        -0.894393
 C         3.697633        -0.657093        -1.328170
 C         2.182674        -0.605095        -1.338027
 O         1.633354        -0.316823        -2.600313
 H        -0.427561         0.211096         0.912756
 H        -0.409540         0.659562        -0.881731
 H        -0.453061        -0.997874        -0.523187
 H         2.592884         1.497984        -0.303194
 H         2.078787        -0.652963         2.227927
 H         3.711442        -2.483191         1.128265
 H         2.970345        -2.923591        -1.305561
 H         4.279930        -0.190552        -0.514599
 H         4.150653        -0.727634        -2.328846
 H         1.537263        -1.112274        -3.124577
