19
Iteration:  4520
 C         0.083208        -0.183102         0.029108
 C         1.535256         0.017059         0.031328
 O         1.905705         1.374279         0.346301
 C         2.237934        -0.993119         0.990445
 C         2.963863        -1.893836         0.463169
 C         2.967976        -1.765930        -1.075107
 C         3.747448        -0.466554        -1.362761
 C         2.191945        -0.411725        -1.334926
 O         1.367603        -0.442338        -2.463796
 H        -0.188468        -1.074092        -0.669585
 H        -0.270564        -0.369082         1.001476
 H        -0.652657         0.626149        -0.411147
 H         2.763522         1.430698         0.755778
 H         1.942152        -0.986575         2.126465
 H         3.315439        -2.823129         1.005064
 H         3.058279        -2.628994        -1.718056
 H         4.505718        -0.072603        -0.634525
 H         4.063344        -0.497271        -2.468627
 H         1.467797        -1.323389        -2.785797
