19
Iteration:   635charge 0 multiplicity 1
 C         0.024004        -0.122635        -0.042905
 C         1.610986        -0.004941         0.028487
 O         1.972430         1.398869         0.156849
 C         2.118257        -0.931083         1.121502
 C         2.795410        -1.975291         0.535622
 C         3.060620        -1.719800        -0.905227
 C         3.661736        -0.403029        -1.297965
 C         2.230300        -0.535900        -1.342875
 O         1.584597        -0.542423        -2.554797
 H        -0.394445         0.019354         0.945900
 H        -0.202506         0.745231        -0.665345
 H        -0.364111        -1.035997        -0.655899
 H         2.105920         1.540006         1.059178
 H         1.541432        -0.828646         2.066331
 H         3.134909        -2.928511         0.921984
 H         2.913367        -2.515061        -1.589951
 H         4.303968         0.131273        -0.554378
 H         4.028995        -0.357123        -2.267591
 H         1.130262        -1.344432        -2.842221
