19
Iteration:  3538
 C         0.147985        -0.234202        -0.083907
 C         1.645053        -0.024410         0.023458
 O         1.812735         1.423170         0.382060
 C         2.209718        -0.884591         1.091964
 C         2.939343        -1.880694         0.522281
 C         2.974915        -1.836829        -0.973371
 C         3.705314        -0.568502        -1.491454
 C         2.232930        -0.510795        -1.312984
 O         1.441707        -0.462531        -2.435641
 H        -0.202836         0.211840        -0.973406
 H        -0.252832        -1.306143        -0.202973
 H        -0.420280         0.341206         0.625567
 H         0.939600         1.801544         0.031122
 H         2.025103        -0.575550         2.104098
 H         3.571658        -2.614730         1.090948
 H         2.860191        -2.696553        -1.601930
 H         4.567083        -0.210422        -0.919696
 H         4.005864        -0.643887        -2.550062
 H         1.689631         0.412312        -2.831021
