19
Iteration:  2742charge 0 multiplicity 1
 C        -0.117074        -0.208462         0.174869
 C         1.492266        -0.095964         0.058146
 O         1.966484         1.430518        -0.036885
 C         2.242359        -0.995697         1.047217
 C         2.997510        -1.939041         0.540670
 C         2.977690        -1.797711        -0.956760
 C         3.695625        -0.518077        -1.376559
 C         2.100467        -0.625662        -1.232769
 O         1.555317        -0.289441        -2.506350
 H        -0.641413         0.766475         0.041063
 H        -0.413090        -0.864016        -0.567027
 H        -0.258201        -0.484837         1.257277
 H         2.912911         1.282685        -0.067229
 H         2.186017        -0.707313         2.090991
 H         3.425843        -2.690598         1.177980
 H         3.065038        -2.741306        -1.542719
 H         4.277816        -0.026710        -0.642911
 H         3.918453        -0.519305        -2.459689
 H         1.623779         0.707282        -2.448375
