19
Iteration:   965
 C        -0.074244        -0.077797        -0.199972
 C         1.538358        -0.051642        -0.007983
 O         1.915591         1.338666         0.321509
 C         2.084034        -0.902132         1.172463
 C         2.868755        -1.950516         0.618590
 C         3.093550        -1.869953        -0.923469
 C         3.754237        -0.506152        -1.445861
 C         2.298580        -0.523740        -1.314581
 O         1.444750        -0.398189        -2.418100
 H        -0.162155         0.964519        -0.656996
 H        -0.294241        -0.914068        -0.993312
 H        -0.519914        -0.286776         0.811552
 H         2.662787         1.588611        -0.227273
 H         1.944363        -0.636229         2.221895
 H         3.307666        -2.754391         1.168794
 H         3.079947        -2.615875        -1.713348
 H         4.590698        -0.058616        -0.864731
 H         4.143144        -0.755983        -2.468206
 H         1.829276        -0.183751        -3.291069
