19
Iteration:  4238
 C         0.001983        -0.128414         0.065401
 C         1.546128        -0.075344         0.021205
 O         1.889835         1.304277         0.330031
 C         2.171091        -0.952854         1.050641
 C         2.961071        -1.899146         0.460738
 C         3.010544        -1.808041        -1.012133
 C         3.693748        -0.409698        -1.418386
 C         2.183732        -0.530244        -1.368798
 O         1.472743        -0.437183        -2.508009
 H        -0.094132        -1.018304         0.795490
 H        -0.262263         0.795170         0.474593
 H        -0.380649        -0.349460        -1.028754
 H         2.840492         1.227575         0.486432
 H         1.845408        -0.795631         2.050676
 H         3.687371        -2.593758         0.930671
 H         2.892075        -2.747598        -1.599357
 H         4.114759        -0.033799        -0.437876
 H         4.352218        -0.393805        -2.325207
 H         1.490914         0.490150        -2.869693
