19
Iteration:  4751charge 0 multiplicity 1
 C         0.168331        -0.264794         0.138991
 C         1.630365         0.041276         0.072680
 O         1.594973         1.438783         0.311211
 C         2.340884        -0.879893         1.005448
 C         2.902672        -1.961687         0.439239
 C         2.866228        -1.901463        -1.090978
 C         3.802213        -0.637797        -1.442084
 C         2.325623        -0.513158        -1.316948
 O         1.511989        -0.235378        -2.523033
 H         0.090337        -1.331065         0.470970
 H        -0.324817         0.485342         0.877143
 H        -0.373657        -0.277906        -0.884453
 H         2.548910         1.841613         0.321975
 H         1.892527        -0.835369         1.958002
 H         3.060369        -2.848736         0.949795
 H         2.728326        -2.851192        -1.596393
 H         4.423917        -0.405296        -0.649709
 H         4.273539        -0.771418        -2.401200
 H         0.647248        -0.024883        -2.123450
