19
Iteration:  4296charge 0 multiplicity 1
 C         0.049647         0.103133        -0.005786
 C         1.456851        -0.069663         0.033765
 O         2.008358         1.232389         0.410172
 C         1.997805        -1.181933         0.920151
 C         2.979050        -1.882469         0.404783
 C         3.150741        -1.602503        -1.045862
 C         3.774921        -0.250394        -1.382566
 C         2.186450        -0.498391        -1.265492
 O         1.395615        -0.766525        -2.415269
 H        -0.454371        -0.801449         0.309798
 H        -0.305810         0.801765         0.863636
 H        -0.442021         0.438440        -0.883992
 H         2.884361         1.393993        -0.082435
 H         1.627705        -1.073406         1.934765
 H         3.571458        -2.640068         0.878290
 H         3.196124        -2.415052        -1.712712
 H         4.484298         0.256585        -0.760676
 H         3.985498        -0.053580        -2.416081
 H         0.958098         0.019275        -2.733447
