19
Iteration:  1963
 C         0.059477        -0.015220         0.268423
 C         1.545911        -0.031411        -0.037729
 O         1.864057         1.344545         0.136908
 C         2.142116        -0.982627         0.990579
 C         2.902278        -2.009602         0.501144
 C         2.996028        -1.769445        -1.012387
 C         3.743971        -0.513211        -1.272797
 C         2.196256        -0.538374        -1.324934
 O         1.442290        -0.461286        -2.560780
 H        -0.479664         0.839173        -0.302046
 H        -0.591923        -0.863144         0.120368
 H        -0.108137         0.222118         1.410102
 H         2.877350         1.388861        -0.096947
 H         1.878503        -0.886796         2.071951
 H         3.737522        -2.376880         1.135400
 H         3.061875        -2.624166        -1.648407
 H         4.244006         0.222672        -0.631655
 H         4.366864        -0.487345        -2.199215
 H         2.180959        -0.441476        -3.216670
