19
Iteration:  4078charge 0 multiplicity 1
 C         0.029428        -0.052289        -0.100283
 C         1.584591        -0.020215         0.020696
 O         2.000312         1.215121         0.326035
 C         2.006198        -1.032435         1.010273
 C         3.003207        -1.869246         0.476599
 C         3.104593        -1.659754        -1.009835
 C         3.663951        -0.308617        -1.412268
 C         2.190400        -0.559622        -1.231693
 O         1.398266        -0.613506        -2.381292
 H        -0.348276        -0.193273        -1.182139
 H        -0.493244        -0.801896         0.442141
 H        -0.481712         0.885183         0.248985
 H         2.922784         1.319102        -0.027084
 H         1.893327        -0.932024         2.121865
 H         3.688190        -2.679128         0.953690
 H         3.274127        -2.551372        -1.704423
 H         4.329308         0.053079        -0.527332
 H         3.793537        -0.209002        -2.568332
 H         1.169039         0.310481        -2.690029
