19
Iteration:  2535charge 0 multiplicity 1
 C         0.002565        -0.091767         0.079589
 C         1.567188        -0.007290         0.003833
 O         1.794209         1.412085         0.323446
 C         2.257549        -0.844412         1.067741
 C         2.918703        -1.852877         0.542378
 C         2.913523        -1.848208        -0.961109
 C         3.751202        -0.673197        -1.466779
 C         2.235562        -0.516301        -1.339430
 O         1.487380        -0.500705        -2.596210
 H        -0.715444         0.646514        -0.429052
 H        -0.269304        -1.003981        -0.316222
 H        -0.078715        -0.150427         1.175052
 H         2.764642         1.520256         0.612744
 H         2.279434        -0.602394         2.193502
 H         3.638907        -2.674331         0.868325
 H         2.857593        -2.773837        -1.567048
 H         4.300747        -0.255467        -0.583236
 H         4.178698        -0.692543        -2.399348
 H         1.885798         0.224981        -3.093121
