19
Iteration:   798charge 0 multiplicity 1
 C         0.031573        -0.092403         0.010633
 C         1.562428         0.011579        -0.016090
 O         1.806208         1.407507         0.140841
 C         2.119696        -0.920380         1.050001
 C         2.830613        -2.026689         0.586431
 C         2.935406        -1.789334        -0.922009
 C         3.798889        -0.530157        -1.311416
 C         2.260667        -0.506005        -1.275711
 O         1.627135        -0.396615        -2.519150
 H        -0.384209         0.650066         0.710009
 H        -0.364308         0.079165        -1.000273
 H        -0.338953        -1.158383         0.139846
 H         2.768798         1.551525        -0.121307
 H         2.015763        -0.703446         2.108598
 H         3.350437        -2.754315         1.233674
 H         2.733471        -2.667205        -1.563202
 H         4.456703        -0.198949        -0.569387
 H         4.195117        -0.635564        -2.366766
 H         1.275921        -1.273305        -2.765230
