19
Iteration:  4468charge 0 multiplicity 1
 C         0.073979        -0.256549         0.095575
 C         1.577050        -0.056197         0.031516
 O         1.736992         1.360693         0.325251
 C         2.237662        -0.933785         1.056775
 C         2.984085        -1.928567         0.437320
 C         2.987032        -1.839794        -1.018255
 C         3.754167        -0.657642        -1.431181
 C         2.195059        -0.508493        -1.312364
 O         1.512180        -0.190134        -2.523548
 H        -0.257545        -1.282613         0.014517
 H        -0.307514         0.225113         0.912059
 H        -0.466475         0.171976        -0.777958
 H         2.257324         1.830619        -0.259092
 H         2.201435        -0.690890         2.193127
 H         3.716658        -2.642941         0.974069
 H         2.993021        -2.839255        -1.528531
 H         4.384138        -0.097937        -0.750406
 H         4.202597        -0.694293        -2.456243
 H         0.694030         0.279504        -2.245552
