19
Iteration:   137
 C         0.010539        -0.112727         0.076227
 C         1.557466         0.011942         0.065142
 O         1.844232         1.394819         0.299194
 C         2.124656        -0.916214         1.124880
 C         2.870740        -1.860295         0.554195
 C         2.958908        -1.790836        -0.986058
 C         3.743930        -0.560904        -1.396872
 C         2.180703        -0.516126        -1.284698
 O         1.699664        -0.571080        -2.674759
 H        -0.517734        -0.586724         0.886321
 H        -0.361430         0.919482        -0.012937
 H        -0.247315        -0.680959        -0.886605
 H         2.639457         1.654519        -0.236833
 H         1.995630        -0.804555         2.224200
 H         3.141180        -2.786650         1.042487
 H         2.845799        -2.619926        -1.660656
 H         4.624739        -0.267951        -0.807436
 H         3.943375        -0.382306        -2.483136
 H         0.990415         0.125760        -2.672125
