19
Iteration:  4227
 C         0.030297        -0.195385         0.005080
 C         1.521322        -0.026908        -0.018412
 O         1.854610         1.338711         0.239722
 C         2.209542        -0.980166         1.080921
 C         3.020964        -1.874212         0.470845
 C         2.887087        -1.781046        -1.045714
 C         3.784276        -0.530591        -1.409714
 C         2.247499        -0.532474        -1.268019
 O         1.451484        -0.360591        -2.439911
 H        -0.365652        -1.077837         0.651149
 H        -0.496771         0.612277         0.424180
 H        -0.559125        -0.437612        -0.983801
 H         2.691252         1.303987         0.635368
 H         2.042331        -1.013364         2.145748
 H         3.635361        -2.643614         0.978711
 H         2.829782        -2.705977        -1.664847
 H         4.444197        -0.115077        -0.585978
 H         4.231380        -0.295161        -2.419095
 H         1.348853         0.585226        -2.546362
