19
Iteration:  2570
 C         0.061618        -0.040589         0.100419
 C         1.577239         0.031785        -0.001602
 O         1.909546         1.406409         0.189778
 C         2.183367        -0.953253         1.129467
 C         2.778986        -1.975934         0.461045
 C         3.035594        -1.775227        -0.982978
 C         3.702312        -0.444647        -1.375465
 C         2.231811        -0.535334        -1.313167
 O         1.522261        -0.616619        -2.531164
 H        -0.559011         0.846116         0.025067
 H        -0.277728        -0.942655        -0.447013
 H        -0.108386        -0.432487         1.167071
 H         2.903390         1.556678        -0.019581
 H         1.967485        -0.761382         2.211285
 H         3.177413        -2.902641         0.847879
 H         3.038594        -2.639556        -1.583341
 H         4.254986         0.124043        -0.664015
 H         4.127070        -0.390533        -2.407554
 H         0.832114         0.032799        -2.669225
