19
Iteration:   103charge 0 multiplicity 1
 C         0.050236        -0.119370        -0.043503
 C         1.601225        -0.025176        -0.060383
 O         1.976821         1.341032         0.117262
 C         2.051822        -0.967194         1.003841
 C         2.847188        -1.911960         0.573962
 C         3.052187        -1.826974        -0.944226
 C         3.740481        -0.451199        -1.298862
 C         2.259693        -0.633243        -1.322016
 O         1.418651        -0.433536        -2.421200
 H        -0.301170        -0.089086         1.017958
 H        -0.369677         0.697379        -0.677210
 H        -0.189006        -1.068322        -0.514555
 H         2.036998         1.523522         1.129211
 H         2.144488        -0.509734         2.023645
 H         3.396219        -2.558857         1.291722
 H         3.203899        -2.677215        -1.635928
 H         4.233737         0.096346        -0.528757
 H         4.108574        -0.456847        -2.385020
 H         1.288452         0.547490        -2.557189
