19
Iteration:   689
 C         0.076374        -0.025990        -0.162218
 C         1.504878         0.004100         0.012909
 O         1.778815         1.321230         0.360481
 C         2.116035        -0.907406         1.077417
 C         2.965074        -1.836518         0.628277
 C         3.000629        -1.818303        -0.873453
 C         3.789874        -0.599184        -1.426361
 C         2.248528        -0.574014        -1.357294
 O         1.467871        -0.422016        -2.531544
 H        -0.377892        -0.351664         0.796601
 H        -0.267805         0.991147        -0.396725
 H        -0.154884        -0.846174        -0.976634
 H         2.627387         1.509934         0.009141
 H         1.861743        -0.786858         2.140324
 H         3.346654        -2.649172         1.192308
 H         3.205921        -2.788529        -1.240763
 H         4.388717         0.003878        -0.703061
 H         4.258223        -0.694053        -2.371463
 H         1.851722        -0.871042        -3.281388
