19
Iteration:   708
 C        -0.130178        -0.058318        -0.147374
 C         1.516221        -0.093690        -0.003608
 O         1.866749         1.368405         0.315960
 C         2.161147        -0.957374         1.124454
 C         2.969081        -1.884068         0.626806
 C         3.028759        -1.841517        -0.877610
 C         3.728253        -0.598481        -1.408440
 C         2.154406        -0.582023        -1.288473
 O         1.582310        -0.408998        -2.563133
 H        -0.505151         0.162255         0.877559
 H        -0.380374         0.826803        -0.741205
 H        -0.711836        -0.893402        -0.648360
 H         2.745227         1.618344        -0.067738
 H         2.134629        -0.455463         2.135496
 H         3.823172        -2.170429         1.267400
 H         2.869776        -2.637484        -1.622378
 H         4.397210         0.079567        -0.820120
 H         4.055191        -0.595452        -2.397441
 H         2.361082        -0.296540        -3.113851
