19
Iteration:   709charge 0 multiplicity 1
 C        -0.133572        -0.060798        -0.148487
 C         1.503878        -0.095195        -0.000689
 O         1.870328         1.369708         0.313350
 C         2.163240        -0.949215         1.111235
 C         2.978467        -1.890442         0.626551
 C         3.023611        -1.836094        -0.883540
 C         3.729961        -0.600607        -1.407352
 C         2.146045        -0.582768        -1.280612
 O         1.589297        -0.410592        -2.557596
 H        -0.488332         0.193483         0.877718
 H        -0.366356         0.832751        -0.746340
 H        -0.739238        -0.949594        -0.618925
 H         2.788829         1.594426        -0.089717
 H         2.128947        -0.477396         2.120805
 H         3.796081        -2.172413         1.270542
 H         2.864323        -2.641155        -1.588253
 H         4.385148         0.088291        -0.823027
 H         4.060385        -0.578501        -2.378140
 H         2.382773        -0.251267        -3.098707
