19
Iteration:  3401charge 0 multiplicity 1
 C         0.051693        -0.164741        -0.189260
 C         1.531545         0.008561         0.128898
 O         2.127720         1.250270         0.330635
 C         2.089406        -0.984567         1.125866
 C         2.968338        -1.845486         0.503797
 C         3.049831        -1.661827        -0.996568
 C         3.651424        -0.320393        -1.545469
 C         2.223744        -0.493637        -1.282924
 O         1.341048        -0.629877        -2.410708
 H        -0.104636         0.172860        -1.343623
 H        -0.013544        -1.248160        -0.182222
 H        -0.700672         0.266827         0.524817
 H         1.815707         1.638253         1.101753
 H         1.839447        -1.105848         2.149441
 H         3.426078        -2.688793         1.125739
 H         3.094143        -2.564160        -1.615201
 H         4.329921         0.220068        -0.900270
 H         4.062458        -0.490658        -2.525812
 H         1.079269         0.224955        -2.764366
