19
Iteration:   890
 C         0.053051         0.008329        -0.027472
 C         1.612262         0.021459        -0.036383
 O         1.892136         1.433175         0.210826
 C         2.039666        -0.963292         1.044128
 C         2.721544        -1.945752         0.492263
 C         3.090292        -1.801654        -0.905895
 C         3.711710        -0.396803        -1.347476
 C         2.277884        -0.590538        -1.305169
 O         1.604835        -0.655659        -2.506231
 H        -0.064178         0.220019         1.039227
 H        -0.417601         0.862880        -0.560995
 H        -0.260459        -0.957297        -0.395708
 H         2.837429         1.383725         0.476998
 H         1.748264        -0.826423         2.080707
 H         3.016307        -2.794333         1.072253
 H         3.125903        -2.670237        -1.541841
 H         4.311118         0.078772        -0.531824
 H         4.126766        -0.446939        -2.340872
 H         0.666825        -0.462240        -2.331250
