19
Iteration:  1212
 C         0.026224        -0.107890        -0.059697
 C         1.582020        -0.071697        -0.090361
 O         1.985585         1.280781         0.192491
 C         2.126524        -0.927127         0.977856
 C         2.736592        -2.035509         0.528849
 C         2.971665        -1.753504        -0.924469
 C         3.830911        -0.258575        -1.208886
 C         2.237876        -0.555234        -1.290067
 O         1.474655        -0.524756        -2.437876
 H        -0.383708         0.359006        -0.954413
 H        -0.284838        -1.186125        -0.076589
 H        -0.084219         0.455581         0.812025
 H         2.560128         1.462913        -0.520758
 H         2.022749        -0.728947         2.087461
 H         3.089342        -2.911661         1.154346
 H         3.203724        -2.515234        -1.671020
 H         4.228262         0.172408        -0.283415
 H         4.426439        -0.095135        -2.195865
 H         0.831137         0.208226        -2.408197
