19
Iteration:  3831charge 0 multiplicity 1
 C         0.034459        -0.212064        -0.031675
 C         1.579610        -0.040643         0.017516
 O         1.838559         1.403211         0.230984
 C         2.282531        -0.904252         1.129274
 C         3.018972        -1.966797         0.599750
 C         3.007135        -1.808176        -0.908672
 C         3.726999        -0.628803        -1.489852
 C         2.260968        -0.526146        -1.294550
 O         1.377814        -0.295760        -2.513858
 H        -0.426030         0.530475        -0.749604
 H        -0.438877        -1.258000        -0.300430
 H        -0.348799        -0.017035         0.972742
 H         0.945822         1.830953         0.370498
 H         2.009042        -0.986523         2.244486
 H         3.519437        -2.712977         1.186815
 H         3.088055        -2.697157        -1.525847
 H         4.563954         0.022802        -1.151448
 H         3.876274        -0.888009        -2.490380
 H         1.938270         0.314661        -3.073536
