19
Iteration:   746charge 0 multiplicity 1
 C         0.071418        -0.153907        -0.028762
 C         1.561968        -0.057949        -0.003739
 O         1.872494         1.422329         0.118373
 C         2.063182        -0.958970         1.087041
 C         2.764226        -1.955897         0.610548
 C         3.010351        -1.759743        -0.953706
 C         3.813433        -0.519302        -1.284642
 C         2.257750        -0.569126        -1.302710
 O         1.555864        -0.455277        -2.557066
 H        -0.165830         0.692797         0.647356
 H        -0.386263         0.067474        -1.040779
 H        -0.384636        -1.083909         0.383147
 H         2.884030         1.443990         0.334722
 H         1.916007        -0.722220         2.135715
 H         3.455001        -2.618563         1.179310
 H         3.030724        -2.671427        -1.595732
 H         4.182034         0.044818        -0.456698
 H         4.280117        -0.441671        -2.341363
 H         0.940280         0.322055        -2.507310
