19
Iteration:  3057charge 0 multiplicity 1
 C         0.141633        -0.223213         0.025995
 C         1.632707        -0.009661        -0.038674
 O         1.939480         1.400084         0.175604
 C         2.329515        -0.923005         1.103825
 C         2.792025        -1.951085         0.447000
 C         2.958625        -1.775579        -0.957731
 C         3.772800        -0.355616        -1.316161
 C         2.293539        -0.509436        -1.362513
 O         1.340732        -0.564878        -2.412247
 H        -0.306131         0.520224        -0.573001
 H        -0.317016        -1.217310        -0.246322
 H        -0.315912        -0.198379         1.078054
 H         1.216178         1.939218        -0.204828
 H         1.870183        -1.052845         2.111648
 H         2.978509        -2.916626         0.896149
 H         3.084493        -2.626229        -1.568582
 H         4.008757         0.171200        -0.435983
 H         4.458136        -0.444578        -2.203315
 H         0.915411         0.242979        -2.673864
