19
Iteration:  3666
 C        -0.031935        -0.076917        -0.009260
 C         1.507680         0.004878         0.020834
 O         1.902311         1.351595         0.375181
 C         2.120500        -0.968563         1.070214
 C         2.962076        -1.899184         0.480981
 C         3.082752        -1.757586        -0.930660
 C         3.757474        -0.464455        -1.430673
 C         2.240664        -0.550852        -1.387866
 O         1.443606        -0.586286        -2.512443
 H        -0.654735         0.719942        -0.667969
 H        -0.329223        -1.113363        -0.323181
 H        -0.432780        -0.142241         1.079508
 H         2.416857         1.780299        -0.362962
 H         2.095934        -0.777750         2.123328
 H         3.643587        -2.569847         1.121248
 H         3.162791        -2.560908        -1.664041
 H         4.208845         0.073203        -0.598563
 H         4.428632        -0.658368        -2.356035
 H         1.365708         0.360137        -2.698234
