19
Iteration:  3082charge 0 multiplicity 1
 C         0.036776        -0.115186        -0.048277
 C         1.547875        -0.010580        -0.041263
 O         1.956256         1.364174         0.408778
 C         2.178466        -0.944261         1.064956
 C         2.985382        -1.901171         0.518737
 C         3.080808        -1.795114        -0.965717
 C         3.720583        -0.495540        -1.461728
 C         2.190914        -0.569259        -1.254289
 O         1.395549        -0.555524        -2.494921
 H        -0.362252         0.714738        -0.626025
 H        -0.462677        -1.105783        -0.454016
 H        -0.425096        -0.134614         0.952041
 H         1.533766         1.939302        -0.185477
 H         2.086325        -0.491547         2.035485
 H         3.730549        -2.519942         1.035282
 H         3.041301        -2.678890        -1.592054
 H         4.204410         0.297553        -0.797157
 H         3.843425        -0.441326        -2.485412
 H         1.411806         0.254898        -3.027288
