19
Iteration:  2199
 C         0.101401        -0.222785        -0.001133
 C         1.573967         0.093031         0.012860
 O         1.749493         1.497249         0.442179
 C         2.231279        -0.886541         1.091761
 C         3.017494        -1.833493         0.550027
 C         2.874000        -1.844587        -0.920538
 C         3.736834        -0.810793        -1.570932
 C         2.196897        -0.505961        -1.340075
 O         1.498444        -0.432922        -2.613659
 H        -0.417945         0.409453        -0.761101
 H         0.034875        -1.273651        -0.210353
 H        -0.337383         0.049673         0.917731
 H         2.418269         1.531312         1.077369
 H         2.076352        -0.345328         2.057128
 H         3.351933        -2.701405         1.147989
 H         2.700154        -2.783169        -1.381272
 H         4.574661        -0.325082        -1.019569
 H         4.073715        -0.897393        -2.561263
 H         1.882099         0.256619        -3.170495
