19
Iteration:  1104charge 0 multiplicity 1
 C         0.121723        -0.158862        -0.161014
 C         1.583422         0.008498         0.021289
 O         1.856888         1.425965         0.221697
 C         2.126545        -0.992511         1.104737
 C         2.860937        -1.986350         0.538213
 C         2.965877        -1.780150        -0.979912
 C         3.707043        -0.472748        -1.354404
 C         2.211475        -0.521268        -1.186500
 O         1.497462        -0.488610        -2.432171
 H        -0.311995         0.757688        -0.624003
 H        -0.068578        -1.044951        -0.822025
 H        -0.461998        -0.465678         0.655127
 H         2.748581         1.687668         0.003799
 H         1.961457        -0.740268         2.132368
 H         3.324065        -2.785174         1.074500
 H         3.211792        -2.507843        -1.746408
 H         4.423568        -0.195897        -0.577225
 H         4.072258        -0.436195        -2.456357
 H         1.613667         0.383349        -2.836452
