19
Iteration:   343charge 0 multiplicity 1
 C        -0.031354        -0.068808        -0.189043
 C         1.530897        -0.073832         0.068139
 O         1.914877         1.292493         0.154607
 C         2.143803        -0.956196         1.153619
 C         2.971114        -1.900523         0.570307
 C         3.102500        -1.843649        -0.943194
 C         3.634049        -0.525936        -1.339466
 C         2.161741        -0.552815        -1.287671
 O         1.501739        -0.329161        -2.450670
 H        -0.676045         0.714714         0.094641
 H        -0.253537        -0.098518        -1.258441
 H        -0.525826        -0.974795         0.326229
 H         2.675703         1.483115         0.781201
 H         1.920453        -1.101526         2.168434
 H         3.660274        -2.490166         1.152307
 H         3.140273        -2.686540        -1.674552
 H         4.127681         0.102068        -0.546879
 H         3.992362        -0.246719        -2.391400
 H         2.228964        -0.242416        -3.088796
