19
Iteration:  4963
 C         0.070419        -0.130386         0.108030
 C         1.575277        -0.073649        -0.066020
 O         1.901694         1.316857         0.245472
 C         2.151221        -0.936195         1.042518
 C         2.951721        -1.941233         0.495870
 C         2.972174        -1.748088        -0.966084
 C         3.713582        -0.384930        -1.413560
 C         2.208590        -0.450390        -1.320663
 O         1.418811        -0.582435        -2.464121
 H        -0.542586         0.574927        -0.556511
 H        -0.347299        -1.165824        -0.028233
 H        -0.098820         0.245228         1.181283
 H         2.796236         1.548437        -0.143313
 H         1.967811        -0.847737         2.110046
 H         3.453855        -2.792553         0.952029
 H         3.165290        -2.496881        -1.730972
 H         4.285892        -0.039804        -0.505670
 H         4.358078        -0.296257        -2.311961
 H         1.225559         0.302162        -2.814381
