19
Iteration:   990charge 0 multiplicity 1
 C         0.167185        -0.181663        -0.211110
 C         1.627070         0.065652        -0.072247
 O         1.845303         1.396072         0.360634
 C         2.092843        -0.945325         1.030344
 C         2.850635        -1.942197         0.532206
 C         2.976319        -1.792226        -0.881814
 C         3.804609        -0.594729        -1.340758
 C         2.211072        -0.536333        -1.260348
 O         1.395425        -0.347147        -2.417039
 H        -0.156749         0.290733        -1.110601
 H         0.104394        -1.273532        -0.197753
 H        -0.225735         0.314438         0.757063
 H         2.454864         1.843910        -0.155878
 H         1.738546        -0.911766         2.061302
 H         3.327499        -2.842870         0.999451
 H         2.864897        -2.587221        -1.647117
 H         4.374701        -0.105201        -0.607247
 H         4.319523        -0.697596        -2.350501
 H         1.694701        -0.870018        -3.172984
