19
Iteration:  3151
 C         0.063335        -0.051980        -0.079953
 C         1.543449         0.034895        -0.049923
 O         2.016332         1.313522         0.394099
 C         2.151869        -0.963466         1.006156
 C         2.982375        -1.912042         0.469610
 C         3.161196        -1.715733        -0.959165
 C         3.700363        -0.371944        -1.404909
 C         2.219453        -0.631407        -1.297913
 O         1.283052        -0.638220        -2.369707
 H        -0.211268         0.527649        -1.051998
 H        -0.229307        -1.037893        -0.243996
 H        -0.449969         0.360680         0.780748
 H         1.605660         1.945161        -0.231730
 H         1.834197        -1.063005         2.069541
 H         3.209591        -2.781576         1.044713
 H         3.252908        -2.678378        -1.515495
 H         3.915187         0.331747        -0.674643
 H         3.888563        -0.238977        -2.491335
 H         1.650085        -0.029152        -3.053580
