19
Iteration:  2429
 C        -0.007558        -0.004717         0.324067
 C         1.553555         0.038109         0.030959
 O         1.809154         1.431447         0.130158
 C         2.280637        -0.957967         1.056551
 C         2.856931        -2.000976         0.461350
 C         2.983774        -1.810703        -1.032497
 C         3.660952        -0.494643        -1.303404
 C         2.097025        -0.610504        -1.357136
 O         1.678065        -0.562218        -2.668244
 H        -0.416549         0.970866        -0.022376
 H        -0.394802        -0.980167         0.087906
 H        -0.033391        -0.009923         1.480238
 H         2.784061         1.588720         0.154959
 H         2.114311        -0.917930         2.199715
 H         3.543060        -2.772846         0.998348
 H         2.889595        -2.631457        -1.745155
 H         4.367080        -0.261962        -0.449222
 H         4.192570        -0.193332        -2.144876
 H         1.165550         0.203429        -2.909126
