19
Iteration:  2556charge 0 multiplicity 1
 C         0.074455        -0.150700         0.193601
 C         1.596692         0.044092        -0.028602
 O         1.869940         1.461994         0.300373
 C         2.159989        -0.888203         0.891957
 C         2.865669        -1.911573         0.495122
 C         2.954350        -1.803945        -0.965217
 C         3.726655        -0.537242        -1.369029
 C         2.170577        -0.557224        -1.330977
 O         1.541830        -0.621409        -2.561256
 H        -0.275917         0.850753        -0.196103
 H        -0.330235        -0.758537        -0.505056
 H        -0.186530        -0.299185         1.214504
 H         2.784859         1.547806         0.221956
 H         2.033134        -0.600500         1.981508
 H         3.169656        -2.720300         1.231486
 H         3.079193        -2.565438        -1.750270
 H         4.372447        -0.190640        -0.521111
 H         4.140096        -0.544416        -2.313809
 H         1.155876         0.294323        -2.620982
