19
Iteration:  1463
 C         0.099475        -0.102056        -0.210238
 C         1.684874         0.046874         0.103343
 O         1.900949         1.451871         0.538244
 C         2.155239        -0.938588         1.055659
 C         2.864704        -1.953177         0.451443
 C         3.004959        -1.781242        -0.998258
 C         3.709229        -0.601432        -1.497138
 C         2.263840        -0.471911        -1.285531
 O         1.425141        -0.611942        -2.423597
 H        -0.234211         0.688366        -0.954505
 H         0.002480        -1.094289        -0.785701
 H        -0.486098         0.125035         0.662425
 H         1.235575         1.872665        -0.011931
 H         2.139093        -0.552863         2.041401
 H         3.030491        -2.845989         0.982703
 H         2.821882        -2.663590        -1.621543
 H         4.265212         0.027607        -0.841227
 H         4.027780        -0.782327        -2.609172
 H         1.712832         0.210791        -2.892788
