19
Iteration:  1725charge 0 multiplicity 1
 C         0.018815        -0.047442         0.029075
 C         1.555941        -0.011599        -0.007254
 O         1.941585         1.352722         0.332754
 C         2.156135        -0.930921         1.053463
 C         2.944381        -1.865100         0.537717
 C         2.882025        -1.802565        -0.957075
 C         3.772461        -0.578252        -1.376913
 C         2.256474        -0.522823        -1.352523
 O         1.459828        -0.544544        -2.619577
 H        -0.347596         0.005336        -1.018036
 H        -0.335908        -1.004972         0.417601
 H        -0.421722         0.703361         0.687395
 H         1.765028         1.356318         1.337424
 H         2.269929        -0.601388         2.037135
 H         3.473709        -2.735153         0.908419
 H         2.958917        -2.565197        -1.722111
 H         4.500939        -0.031098        -0.734606
 H         4.278406        -0.563747        -2.385812
 H         1.514290         0.415580        -2.845832
