19
Iteration:   189
 C         0.118418        -0.150567        -0.128013
 C         1.602900        -0.009214         0.052698
 O         1.940852         1.370265         0.183465
 C         2.137291        -0.903887         1.154167
 C         2.795854        -1.908860         0.564472
 C         2.990733        -1.796259        -0.916499
 C         3.767691        -0.535140        -1.390408
 C         2.219939        -0.569155        -1.337553
 O         1.430915        -0.454583        -2.486541
 H        -0.390152        -0.665218         0.708498
 H        -0.402765         0.806617        -0.341865
 H        -0.097774        -0.660789        -1.043527
 H         1.433321         1.779954         0.842753
 H         2.023074        -0.937546         2.254818
 H         3.344977        -2.649013         1.147123
 H         3.069123        -2.735364        -1.454318
 H         4.247622         0.077342        -0.642365
 H         4.390628        -0.492459        -2.301874
 H         1.953318         0.112024        -3.092092
