19
Iteration:   502
 C        -0.039195        -0.120702         0.014168
 C         1.528919         0.028202         0.075552
 O         1.855744         1.447598         0.187322
 C         2.099794        -0.962933         1.084750
 C         2.877197        -1.942098         0.540951
 C         2.998966        -1.818018        -0.909446
 C         3.779425        -0.549515        -1.410688
 C         2.269329        -0.517909        -1.272658
 O         1.601418        -0.418243        -2.532110
 H        -0.574423        -0.680793         0.826020
 H        -0.593394         0.828165        -0.230783
 H        -0.204869        -0.723707        -0.906132
 H         2.762162         1.650482         0.022009
 H         1.940499        -0.756558         2.106666
 H         3.346834        -2.730719         1.100347
 H         2.960209        -2.658802        -1.629359
 H         4.468364        -0.212469        -0.677226
 H         4.111072        -0.466288        -2.440164
 H         1.410166        -1.300285        -2.906922
