19
Iteration:  2322charge 0 multiplicity 1
 C        -0.024132         0.063009         0.065673
 C         1.520417         0.060908         0.022557
 O         1.838202         1.412049         0.448035
 C         2.170696        -0.974934         1.023827
 C         3.017358        -1.902749         0.436518
 C         3.083204        -1.790029        -1.002852
 C         3.741125        -0.578121        -1.506243
 C         2.184338        -0.587466        -1.334307
 O         1.463878        -0.647715        -2.551126
 H        -0.705123         0.445429        -0.668564
 H        -0.398042        -0.894411         0.392019
 H        -0.089717         0.759274         0.946144
 H         2.768487         1.325046         0.795745
 H         1.633772        -0.958680         2.030945
 H         3.733148        -2.633339         0.922267
 H         3.040678        -2.542048        -1.821324
 H         4.369444        -0.017555        -0.727349
 H         4.101874        -0.629408        -2.544537
 H         1.505908         0.232978        -2.923004
