19
Iteration:  1567
 C         0.050596        -0.124377        -0.046391
 C         1.569468        -0.013352         0.025583
 O         1.940464         1.435793         0.205820
 C         2.169795        -0.972709         1.100792
 C         2.836537        -2.009921         0.474887
 C         3.043428        -1.853529        -1.031594
 C         3.736802        -0.536453        -1.366052
 C         2.305540        -0.490504        -1.327935
 O         1.450247        -0.405501        -2.316712
 H        -0.256729         0.215243        -0.993034
 H        -0.333524        -1.068901         0.141546
 H        -0.413641         0.471767         0.730369
 H         1.112208         1.838673         0.066870
 H         1.974693        -0.838753         2.119933
 H         2.874294        -2.962923         0.998539
 H         2.999336        -2.616856        -1.819595
 H         4.179674         0.100807        -0.695535
 H         4.257250        -0.487841        -2.342315
 H         1.931684        -0.312473        -3.159556
