19
Iteration:  3914
 C         0.090679        -0.259883         0.279157
 C         1.609334        -0.048565        -0.049241
 O         1.766963         1.420842         0.174901
 C         2.246643        -0.893151         0.993521
 C         2.903470        -1.990166         0.464251
 C         2.953907        -1.800847        -0.984659
 C         3.708200        -0.585951        -1.449611
 C         2.177723        -0.502724        -1.289983
 O         1.639729        -0.362111        -2.502303
 H        -0.540585         0.273600        -0.549926
 H        -0.302763        -1.209539         0.231658
 H        -0.171013         0.226577         1.282415
 H         0.850390         1.726495         0.287671
 H         2.056655        -0.745315         2.100203
 H         3.448222        -2.724447         1.096450
 H         2.843511        -2.653898        -1.646582
 H         4.357234        -0.064963        -0.553841
 H         4.043123        -0.520400        -2.540031
 H         1.751448         0.537778        -2.822552
