19
Iteration:   636charge 0 multiplicity 1
 C         0.018880        -0.126651        -0.044737
 C         1.610572        -0.000351         0.032112
 O         1.971455         1.398957         0.155869
 C         2.118936        -0.929199         1.117430
 C         2.787268        -1.975210         0.534559
 C         3.055408        -1.712581        -0.910545
 C         3.669726        -0.407697        -1.303180
 C         2.233539        -0.537594        -1.328471
 O         1.581456        -0.544901        -2.549575
 H        -0.407767        -0.021877         0.929006
 H        -0.192970         0.741415        -0.655649
 H        -0.324888        -1.019829        -0.669842
 H         2.140687         1.562125         1.071339
 H         1.566541        -0.848181         2.047520
 H         3.112701        -2.913764         0.917824
 H         2.928859        -2.496830        -1.601516
 H         4.308824         0.158797        -0.568131
 H         4.050759        -0.384122        -2.287366
 H         1.163601        -1.354136        -2.838828
