19
Iteration:  3302charge 0 multiplicity 1
 C         0.120935        -0.354865         0.131329
 C         1.590462         0.001238        -0.018587
 O         1.866340         1.404503         0.070999
 C         2.257857        -0.861817         1.134333
 C         2.831688        -1.896176         0.552627
 C         2.917647        -1.777725        -1.012328
 C         3.750770        -0.553063        -1.372533
 C         2.253032        -0.556353        -1.333346
 O         1.473122        -0.363547        -2.536953
 H        -0.610736         0.356223        -0.362073
 H         0.018652        -1.328639        -0.255399
 H        -0.180224        -0.368990         1.162163
 H         1.586352         1.598844         0.961434
 H         2.022554        -0.635847         2.179363
 H         3.316050        -2.700836         1.053264
 H         2.908619        -2.677816        -1.517052
 H         4.455545        -0.160045        -0.675321
 H         4.156675        -0.544010        -2.349620
 H         1.343423         0.605759        -2.518810
