19
Iteration:  3787charge 0 multiplicity 1
 C         0.000445        -0.080277         0.056637
 C         1.528844        -0.006916         0.032490
 O         2.069836         1.310030         0.245452
 C         2.142626        -0.947355         1.065124
 C         2.983346        -1.861371         0.448752
 C         2.959979        -1.698947        -0.983487
 C         3.746274        -0.380137        -1.342127
 C         2.117985        -0.541400        -1.299785
 O         1.516397        -0.696665        -2.551387
 H        -0.667159         0.785115        -0.227135
 H        -0.297686        -0.874359        -0.722765
 H        -0.463105        -0.454649         0.966179
 H         1.430039         1.858305         0.779686
 H         1.984551        -0.909103         2.191941
 H         3.448559        -2.742572         0.897158
 H         2.966262        -2.562154        -1.656060
 H         4.214115         0.177045        -0.506987
 H         3.994333        -0.286700        -2.352965
 H         1.384207         0.193189        -2.993181
