19
Iteration:  2391charge 0 multiplicity 1
 C         0.034413         0.007105         0.087807
 C         1.543023        -0.026185        -0.048315
 O         1.969136         1.342708         0.235796
 C         2.076871        -0.998969         1.091204
 C         2.916298        -1.917286         0.537235
 C         3.144807        -1.750417        -1.010838
 C         3.705782        -0.445588        -1.448784
 C         2.170944        -0.610336        -1.297260
 O         1.402361        -0.554611        -2.463438
 H        -0.570734         0.910965        -0.063149
 H        -0.422866        -0.746990        -0.634667
 H        -0.205031        -0.327266         1.064368
 H         2.984858         1.370291         0.041819
 H         1.874903        -0.832447         2.157413
 H         3.418412        -2.617154         1.181890
 H         3.113610        -2.582704        -1.708121
 H         4.322906        -0.004311        -0.686768
 H         4.027060        -0.388355        -2.529416
 H         1.517382         0.312869        -2.897186
