19
Iteration:  2554
 C         0.069003        -0.153419         0.198743
 C         1.589422         0.062186        -0.037675
 O         1.858893         1.462825         0.312437
 C         2.179329        -0.892104         0.900241
 C         2.875074        -1.909814         0.496720
 C         2.943546        -1.812567        -0.959560
 C         3.734311        -0.553130        -1.361013
 C         2.169113        -0.563882        -1.349897
 O         1.538933        -0.613536        -2.562220
 H        -0.246464         0.831302        -0.194875
 H        -0.364731        -0.819789        -0.546221
 H        -0.193702        -0.265993         1.202396
 H         2.828184         1.526716         0.253568
 H         1.995738        -0.593458         1.914039
 H         3.202914        -2.625324         1.275100
 H         3.015026        -2.591087        -1.789568
 H         4.393016        -0.167504        -0.540117
 H         4.172489        -0.517520        -2.361709
 H         1.225453         0.312089        -2.655081
