19
Iteration:   629charge 0 multiplicity 1
 C         0.063966        -0.085209        -0.044476
 C         1.583984        -0.039439        -0.020968
 O         1.974295         1.385651         0.156839
 C         2.104388        -0.958756         1.132395
 C         2.848669        -1.965607         0.561239
 C         3.078356        -1.779430        -0.877716
 C         3.637814        -0.376691        -1.277394
 C         2.190977        -0.529384        -1.374763
 O         1.600280        -0.513259        -2.610754
 H        -0.324341         0.220631         0.965352
 H        -0.321581         0.733151        -0.693054
 H        -0.480957        -0.956083        -0.293359
 H         1.912446         1.484202         1.175182
 H         1.628742        -0.812169         2.081484
 H         3.228513        -2.888933         1.023083
 H         2.990441        -2.692312        -1.531390
 H         4.157922         0.028659        -0.417141
 H         4.079623        -0.201553        -2.336637
 H         0.966929        -1.244049        -2.687150
