19
Iteration:  2730
 C         0.038992        -0.200759         0.114603
 C         1.520898        -0.020037         0.056041
 O         1.942177         1.441341        -0.006093
 C         2.249170        -0.934478         1.049038
 C         2.957842        -1.992408         0.521964
 C         3.005317        -1.852172        -0.936330
 C         3.605572        -0.493577        -1.343787
 C         2.078495        -0.658644        -1.246996
 O         1.524619        -0.305868        -2.433262
 H        -0.445929         0.769109        -0.356556
 H        -0.268097        -0.983484        -0.477945
 H        -0.549856        -0.551642         1.009409
 H         2.952296         1.386215        -0.332950
 H         1.954302        -1.048092         2.115283
 H         3.587197        -2.707027         0.992246
 H         3.175975        -2.615390        -1.657066
 H         4.312561        -0.063006        -0.753535
 H         4.012485        -0.370338        -2.410712
 H         1.435680         0.654876        -2.457736
