19
Iteration:  1731charge 0 multiplicity 1
 C        -0.002182        -0.061669        -0.025010
 C         1.562587         0.039734         0.002119
 O         1.940425         1.346895         0.362095
 C         2.174518        -0.920020         1.052868
 C         2.936967        -1.874263         0.556118
 C         2.899393        -1.815189        -0.990567
 C         3.813957        -0.590172        -1.405125
 C         2.254297        -0.601897        -1.334502
 O         1.433877        -0.501178        -2.596589
 H        -0.389434         0.092435        -1.025069
 H        -0.358237        -0.985519         0.530941
 H        -0.346710         0.743479         0.646318
 H         1.549053         1.376709         1.295025
 H         2.146100        -0.676039         2.179723
 H         3.666825        -2.546825         1.019460
 H         2.960581        -2.619088        -1.724323
 H         4.501263         0.061296        -0.779331
 H         4.158784        -0.634226        -2.419213
 H         1.562937         0.342800        -3.031454
