19
Iteration:  2612
 C         0.069373        -0.011607        -0.072117
 C         1.570834        -0.001844        -0.067608
 O         1.972224         1.316423         0.189018
 C         2.076638        -1.012821         1.035822
 C         2.953625        -1.893707         0.525365
 C         3.120092        -1.772660        -0.994760
 C         3.661132        -0.470435        -1.348282
 C         2.211640        -0.647808        -1.259202
 O         1.334770        -0.516486        -2.353288
 H        -0.310630         0.770372        -0.729902
 H        -0.384286        -0.903949        -0.255157
 H        -0.288369         0.314591         0.920797
 H         2.910587         1.405532        -0.116187
 H         1.950889        -1.159217         2.130116
 H         3.621845        -2.459296         1.177216
 H         3.258648        -2.590903        -1.624290
 H         4.109531         0.136823        -0.603335
 H         3.964852        -0.221069        -2.379403
 H         1.402955         0.438759        -2.505343
