19
Iteration:  3635charge 0 multiplicity 1
 C         0.122472        -0.224508         0.000128
 C         1.598262        -0.014588        -0.000271
 O         1.812305         1.394361         0.035656
 C         2.190201        -0.990383         1.103945
 C         2.838718        -1.957505         0.499905
 C         3.003140        -1.746175        -0.937066
 C         3.739982        -0.423219        -1.367884
 C         2.236358        -0.568662        -1.237319
 O         1.500010        -0.415760        -2.373228
 H        -0.597520         0.538551        -0.376649
 H        -0.259065        -1.164909        -0.511188
 H        -0.228938        -0.368687         1.048089
 H         2.683250         1.564454        -0.367731
 H         1.940893        -0.828942         2.115173
 H         3.219817        -2.947968         0.972365
 H         2.899930        -2.467162        -1.768129
 H         4.483993        -0.112909        -0.672468
 H         4.284836        -0.336597        -2.376277
 H         0.940289         0.380127        -2.184116
