19
Iteration:  1201
 C         0.064951        -0.084997        -0.128220
 C         1.545693        -0.043343        -0.008409
 O         1.956443         1.249108         0.199450
 C         2.118500        -0.973352         1.076405
 C         2.796679        -2.004689         0.542226
 C         3.079529        -1.696420        -0.996712
 C         3.680888        -0.384173        -1.275869
 C         2.224545        -0.533799        -1.286722
 O         1.509068        -0.513273        -2.418953
 H        -0.275065         0.487938        -0.995290
 H        -0.515656        -1.026143         0.013707
 H        -0.408799         0.537722         0.582062
 H         2.794869         1.449313        -0.326326
 H         1.823387        -0.554168         2.072613
 H         3.381458        -2.783624         1.108983
 H         3.182101        -2.448451        -1.786216
 H         4.116097         0.131339        -0.420933
 H         4.461639        -0.406381        -2.132198
 H         0.977561         0.287851        -2.458242
