19
Iteration:  2728charge 0 multiplicity 1
 C         0.059387        -0.193717         0.108306
 C         1.534285        -0.003253         0.039551
 O         1.933629         1.428431         0.004335
 C         2.258297        -0.940629         1.072549
 C         2.936597        -1.979744         0.515946
 C         3.015284        -1.865820        -0.951978
 C         3.590432        -0.494315        -1.337720
 C         2.105300        -0.653546        -1.243867
 O         1.505744        -0.312798        -2.426943
 H        -0.400868         0.775389        -0.428618
 H        -0.203090        -1.050449        -0.557683
 H        -0.508493        -0.497119         1.002683
 H         2.872389         1.416868        -0.348421
 H         1.880988        -1.019244         2.142255
 H         3.607758        -2.707110         0.945988
 H         3.146492        -2.590400        -1.667006
 H         4.311463        -0.066591        -0.690328
 H         3.979469        -0.362410        -2.388565
 H         1.399886         0.636362        -2.465740
