19
Iteration:  4667
 C        -0.046775        -0.027686         0.000410
 C         1.617857        -0.055747        -0.002466
 O         1.933686         1.312114         0.298148
 C         2.169919        -1.073094         1.013171
 C         2.943537        -1.987393         0.510383
 C         3.049033        -1.755847        -1.021629
 C         3.759346        -0.364548        -1.475080
 C         2.249694        -0.540872        -1.300357
 O         1.412875        -0.423968        -2.420141
 H        -0.639993        -0.802369        -0.369715
 H        -0.434366        -0.144858         1.069424
 H        -0.447514         0.854287        -0.291842
 H         2.763985         1.490687        -0.258575
 H         1.886623        -0.909048         2.051790
 H         3.389879        -2.737003         1.102052
 H         3.205091        -2.617517        -1.647834
 H         4.222963         0.148361        -0.678430
 H         4.059198        -0.127379        -2.503147
 H         0.657406        -0.891562        -2.000819
