19
Iteration:  3170
 C         0.049579        -0.088017        -0.036376
 C         1.609151        -0.039878         0.088570
 O         2.071522         1.369770         0.174013
 C         2.137511        -1.042140         1.144228
 C         2.874072        -2.032453         0.440487
 C         3.093929        -1.665083        -1.008862
 C         3.649858        -0.238621        -1.346935
 C         2.203428        -0.483594        -1.286076
 O         1.355031        -0.713363        -2.404251
 H        -0.209105         0.705065        -0.859632
 H        -0.252673        -1.165313        -0.386722
 H        -0.413845         0.223566         0.877847
 H         1.465736         1.833503        -0.355245
 H         1.856754        -0.847293         2.200218
 H         3.428908        -2.889761         0.922670
 H         3.203131        -2.506632        -1.831488
 H         4.134398         0.249530        -0.471046
 H         4.186281        -0.374637        -2.286777
 H         1.484459         0.147291        -2.843228
