19
Iteration:  4487charge 0 multiplicity 1
 C         0.046796        -0.202238         0.058540
 C         1.578398        -0.045632         0.033071
 O         1.728519         1.360607         0.403067
 C         2.297455        -0.898610         1.053397
 C         2.998214        -1.989893         0.530587
 C         2.951824        -1.824330        -0.994531
 C         3.660752        -0.554359        -1.530755
 C         2.229079        -0.508895        -1.325605
 O         1.594275        -0.253138        -2.542724
 H        -0.298994        -1.262162        -0.252281
 H        -0.248228        -0.044445         1.071028
 H        -0.446509         0.606941        -0.602124
 H         2.457507         1.664270        -0.096294
 H         2.099411        -0.846602         2.160543
 H         3.312862        -2.853228         1.134819
 H         2.876061        -2.655925        -1.653039
 H         4.511864        -0.051243        -1.005868
 H         3.861572        -0.491544        -2.643802
 H         0.677776        -0.676972        -2.554558
