19
Iteration:  3398
 C         0.041644        -0.190987        -0.173624
 C         1.528396        -0.008821         0.100994
 O         2.138287         1.275776         0.321975
 C         2.073799        -0.985849         1.130827
 C         2.966480        -1.869850         0.500432
 C         3.064500        -1.693802        -0.980109
 C         3.648434        -0.314801        -1.549112
 C         2.204417        -0.491713        -1.280335
 O         1.345189        -0.608039        -2.408446
 H        -0.088556         0.170875        -1.169569
 H        -0.014602        -1.373517        -0.176450
 H        -0.634349         0.381288         0.446993
 H         1.808626         1.823901         1.108535
 H         1.845841        -1.109086         2.234421
 H         3.426837        -2.671429         1.093931
 H         3.102540        -2.476808        -1.655738
 H         4.386433         0.310466        -0.985876
 H         4.159699        -0.497699        -2.438866
 H         1.058756         0.232799        -2.841963
