19
Iteration:  3802charge 0 multiplicity 1
 C         0.003216        -0.116015         0.073946
 C         1.522553        -0.057618        -0.001646
 O         1.950882         1.357555         0.307058
 C         2.176835        -0.880954         1.028821
 C         2.918581        -1.821037         0.502170
 C         3.034578        -1.803249        -1.047258
 C         3.701738        -0.503139        -1.412498
 C         2.241302        -0.594341        -1.300687
 O         1.478913        -0.567282        -2.516154
 H        -0.244536         0.876251        -0.146018
 H        -0.555961        -0.807137        -0.635285
 H        -0.235078        -0.365704         1.125850
 H         1.183533         1.742958         0.633008
 H         1.900931        -0.771312         2.061979
 H         3.635428        -2.352310         1.103469
 H         3.022884        -2.683322        -1.679639
 H         4.287249        -0.060431        -0.655460
 H         4.219478        -0.284484        -2.362769
 H         1.841761         0.179068        -3.000664
