19
Iteration:  4098
 C        -0.027237        -0.142194        -0.020751
 C         1.495405        -0.109771         0.003397
 O         1.874479         1.399067         0.300736
 C         2.164326        -0.979651         1.050206
 C         2.991319        -1.937460         0.479837
 C         3.125701        -1.768398        -0.966493
 C         3.793886        -0.437297        -1.438357
 C         2.233464        -0.550998        -1.332573
 O         1.375214        -0.449281        -2.452729
 H        -0.481093        -0.389203        -1.074469
 H        -0.386980        -0.776476         0.735637
 H        -0.448878         0.910370         0.249181
 H         2.905914         1.310967         0.233928
 H         1.984097        -1.047772         2.170991
 H         3.456464        -2.687852         1.154423
 H         3.128038        -2.646720        -1.662078
 H         4.201049         0.102273        -0.506988
 H         4.199888        -0.599069        -2.497011
 H         1.234222         0.545503        -2.460243
