19
Iteration:   448charge 0 multiplicity 1
 C        -0.070581        -0.159835        -0.083685
 C         1.536931        -0.048042        -0.046125
 O         1.902244         1.380358         0.148481
 C         2.163107        -0.877107         1.084213
 C         2.960202        -1.893208         0.579668
 C         2.972842        -1.851862        -0.900711
 C         3.779817        -0.558127        -1.269179
 C         2.213440        -0.603508        -1.293842
 O         1.544968        -0.393893        -2.529630
 H        -0.352271        -0.739552         0.812016
 H        -0.690743         0.750047         0.038009
 H        -0.571493        -0.562928        -0.946089
 H         2.834631         1.381997         0.108683
 H         1.880142        -0.731500         2.077585
 H         3.557397        -2.623142         1.082792
 H         3.071480        -2.595634        -1.687946
 H         4.251774        -0.025610        -0.457579
 H         4.293257        -0.359020        -2.161521
 H         1.017986         0.430662        -2.401214
