19
Iteration:  5000
 C         0.075589        -0.320452         0.079505
 C         1.598872         0.028574         0.025912
 O         1.775906         1.468955         0.214245
 C         2.403755        -0.847714         1.152662
 C         2.853610        -1.984585         0.521407
 C         2.872273        -1.802125        -0.985023
 C         3.670996        -0.474433        -1.501878
 C         2.218977        -0.531767        -1.289917
 O         1.481512        -0.429225        -2.504043
 H        -0.514005         0.533731        -0.134447
 H        -0.134655        -1.076504        -0.640872
 H        -0.155178        -0.732309         1.052609
 H         2.805977         1.627898         0.105096
 H         2.201868        -0.760552         2.236980
 H         3.106741        -2.882604         1.129617
 H         2.968604        -2.703352        -1.587748
 H         4.317098        -0.195165        -0.694402
 H         4.032810        -0.559883        -2.524509
 H         2.027414         0.123275        -3.121275
