19
Iteration:  2814
 C         0.169340        -0.238311        -0.106792
 C         1.660338         0.039664         0.077823
 O         1.837625         1.415850         0.405140
 C         2.199813        -0.871465         1.085598
 C         2.875873        -1.888418         0.485113
 C         2.885592        -1.675048        -0.995109
 C         3.745219        -0.543551        -1.512388
 C         2.215245        -0.491039        -1.289553
 O         1.429481        -0.621957        -2.422299
 H        -0.189936         0.427226        -0.991748
 H         0.020883        -1.247636        -0.503017
 H        -0.493753         0.001091         0.748960
 H         2.764547         1.466259         0.497357
 H         2.109712        -0.710481         2.186994
 H         3.267492        -2.865746         0.726416
 H         2.601420        -2.429306        -1.645201
 H         4.478294        -0.075019        -0.927398
 H         3.917373        -0.699737        -2.654567
 H         1.343498         0.260301        -2.870369
