19
Iteration:  1128
 C         0.037934        -0.129209        -0.139261
 C         1.585570         0.016962        -0.031900
 O         1.831787         1.453129         0.451790
 C         2.156272        -0.901260         1.044856
 C         2.892447        -1.913690         0.547710
 C         3.029048        -1.781920        -0.911983
 C         3.776128        -0.592027        -1.443078
 C         2.259766        -0.527773        -1.356598
 O         1.433820        -0.524076        -2.520250
 H        -0.478174         0.776299        -0.494584
 H        -0.156985        -1.015908        -0.837929
 H        -0.517460        -0.518712         0.720144
 H         2.738521         1.661387         0.906520
 H         1.801329        -0.866368         2.110336
 H         3.291395        -2.705784         1.251362
 H         2.794168        -2.639106        -1.581006
 H         4.215752         0.008679        -0.638678
 H         4.402826        -0.666151        -2.369767
 H         1.921807        -0.137299        -3.268226
