19
Iteration:  3976charge 0 multiplicity 1
 C         0.039116        -0.109942        -0.157793
 C         1.592456        -0.031067        -0.009262
 O         2.066209         1.322937         0.256807
 C         2.143907        -0.947987         1.080753
 C         2.982197        -1.952994         0.556472
 C         3.072381        -1.773627        -0.923362
 C         3.597498        -0.271413        -1.482266
 C         2.180724        -0.587044        -1.303633
 O         1.333468        -0.572419        -2.413612
 H        -0.403341         0.881299        -0.103890
 H        -0.169201        -0.700556        -1.129590
 H        -0.535442        -0.725931         0.620043
 H         2.033679         1.367105         1.223209
 H         2.060649        -0.952431         2.191138
 H         3.643756        -2.591161         1.254786
 H         3.418179        -2.615801        -1.512345
 H         4.213222         0.179240        -0.701176
 H         3.881525        -0.285358        -2.525758
 H         1.277850         0.329448        -2.725583
