19
Iteration:  4506
 C         0.056650        -0.214163         0.038939
 C         1.607725         0.004691         0.086498
 O         1.807356         1.390622         0.366250
 C         2.190949        -0.955860         1.098634
 C         2.898152        -1.936433         0.408497
 C         2.952162        -1.733119        -1.018771
 C         3.724067        -0.516537        -1.522092
 C         2.226461        -0.512985        -1.280680
 O         1.493844        -0.371114        -2.512627
 H        -0.130450        -1.164514        -0.498439
 H        -0.382660        -0.397330         1.137670
 H        -0.312146         0.707492        -0.388852
 H         2.790100         1.453793         0.432499
 H         2.260080        -0.743950         2.140259
 H         3.605022        -2.558025         0.860902
 H         2.888617        -2.532912        -1.714998
 H         4.397511        -0.106541        -0.737014
 H         4.060143        -0.484565        -2.554524
 H         1.237184        -1.289334        -2.849369
