19
Iteration:  3906
 C         0.170704        -0.261843         0.228856
 C         1.606823        -0.047082        -0.005916
 O         1.732126         1.398167         0.197592
 C         2.300446        -0.868486         1.030977
 C         2.853310        -1.968654         0.498392
 C         2.911456        -1.831345        -1.016921
 C         3.683221        -0.554763        -1.404158
 C         2.221307        -0.524411        -1.312923
 O         1.621564        -0.336681        -2.572408
 H        -0.483020         0.090509        -0.588604
 H        -0.156046        -1.252723         0.500435
 H        -0.088046         0.344412         1.077302
 H         0.855046         1.724974         0.281923
 H         2.009652        -0.655583         2.070206
 H         3.417730        -2.722929         0.897242
 H         2.955833        -2.776889        -1.525605
 H         4.426279        -0.257261        -0.635735
 H         3.975089        -0.596741        -2.422160
 H         1.582116         0.610013        -2.670790
