19
Iteration:  2606
 C         0.085465         0.018193        -0.059764
 C         1.574543        -0.032704        -0.011853
 O         1.970851         1.345721         0.130368
 C         2.071434        -1.058946         1.064891
 C         2.964747        -1.926934         0.482446
 C         3.135254        -1.775843        -0.950683
 C         3.647601        -0.427376        -1.333812
 C         2.170421        -0.590336        -1.269010
 O         1.359417        -0.528306        -2.343964
 H        -0.327125         0.770554        -0.747104
 H        -0.391151        -1.002965        -0.487934
 H        -0.218337         0.158878         1.002859
 H         2.919811         1.325377        -0.271093
 H         1.873178        -0.928024         2.121907
 H         3.462341        -2.705869         1.075636
 H         3.277551        -2.677828        -1.631899
 H         4.244511         0.195487        -0.618493
 H         3.952500        -0.314168        -2.401924
 H         1.238526         0.430943        -2.471808
