19
Iteration:  1000
 C         0.137900        -0.201881        -0.128067
 C         1.634963         0.043735        -0.049727
 O         1.837271         1.430902         0.352005
 C         2.108685        -0.951017         1.045576
 C         2.848239        -1.955114         0.538295
 C         2.949166        -1.816103        -1.005838
 C         3.728574        -0.561111        -1.283752
 C         2.300238        -0.479790        -1.311773
 O         1.483483        -0.358353        -2.441916
 H        -0.427707        -0.030166        -1.046626
 H        -0.081849        -1.282299         0.131130
 H        -0.408492         0.464372         0.618542
 H         2.511509         1.841010        -0.193479
 H         1.767092        -0.687661         2.032575
 H         3.193900        -2.834075         1.127504
 H         2.750666        -2.616684        -1.739698
 H         4.403961        -0.309346        -0.542456
 H         4.145949        -0.713769        -2.330544
 H         1.633094        -1.111492        -3.049924
