19
Iteration:  4316
 C        -0.086118         0.069879        -0.104728
 C         1.539879        -0.048705        -0.003668
 O         2.034140         1.217954         0.440968
 C         2.092065        -1.126871         0.996798
 C         2.984881        -1.906757         0.516553
 C         3.207075        -1.665702        -0.996795
 C         3.700661        -0.269754        -1.472842
 C         2.231699        -0.554854        -1.379788
 O         1.320676        -0.655404        -2.412746
 H        -0.673083        -0.912246        -0.357207
 H        -0.454836         0.335971         0.997724
 H        -0.282454         0.999226        -0.798888
 H         2.951925         1.265470         0.303601
 H         1.786870        -1.079920         2.029433
 H         3.576350        -2.634387         1.048538
 H         3.438778        -2.411571        -1.688208
 H         4.113931         0.527653        -0.762406
 H         4.318445        -0.236001        -2.390305
 H         0.619839        -0.025988        -2.281145
