19
Iteration:  1504charge 0 multiplicity 1
 C        -0.025717        -0.107862         0.108578
 C         1.502316        -0.046255         0.007831
 O         1.980983         1.313101         0.355388
 C         2.103354        -0.873667         1.007767
 C         2.925398        -1.887751         0.522069
 C         2.954177        -1.809698        -0.957872
 C         3.807209        -0.586979        -1.382622
 C         2.195328        -0.594486        -1.292898
 O         1.540527        -0.419009        -2.594181
 H        -0.406597         0.725674        -0.508698
 H        -0.401363        -1.123888        -0.384251
 H        -0.361658        -0.068228         1.159871
 H         1.797614         1.858515        -0.415899
 H         2.107269        -0.431518         1.942669
 H         3.286187        -2.751605         1.037080
 H         3.062405        -2.547329        -1.763411
 H         4.428244        -0.049797        -0.723303
 H         4.108410        -0.710909        -2.501911
 H         1.608762         0.477908        -2.952076
