19
Iteration:  2970
 C        -0.039055        -0.196152        -0.123056
 C         1.518294        -0.017825        -0.054396
 O         1.782749         1.439800         0.363615
 C         2.264858        -0.888635         1.098689
 C         3.111559        -1.782470         0.563524
 C         2.979111        -1.855786        -0.991469
 C         3.691369        -0.647115        -1.509145
 C         2.146096        -0.629419        -1.272468
 O         1.472830        -0.397839        -2.451248
 H        -0.359827         0.447963        -0.930283
 H        -0.181988        -1.284263        -0.397780
 H        -0.433923         0.154908         0.903396
 H         2.690491         1.340096         0.855038
 H         2.264228        -0.752740         2.193420
 H         3.694331        -2.460343         1.201748
 H         2.990345        -2.812232        -1.591448
 H         4.430147        -0.196594        -0.912899
 H         4.056294        -0.571150        -2.565918
 H         1.795993         0.485146        -2.675799
