19
Iteration:  2940charge 0 multiplicity 1
 C         0.162360        -0.202532        -0.095834
 C         1.636189         0.017225        -0.011289
 O         1.830659         1.390430         0.334501
 C         2.143660        -0.950155         1.130295
 C         2.825428        -1.957551         0.549765
 C         2.987145        -1.696726        -0.987291
 C         3.735480        -0.494884        -1.481003
 C         2.250762        -0.372109        -1.330476
 O         1.421359        -0.623181        -2.389711
 H        -0.198569         0.579861        -0.705964
 H        -0.145199        -1.285282        -0.516006
 H        -0.324124        -0.308267         0.894667
 H         2.521657         1.686575        -0.200896
 H         2.183310        -0.796432         2.240866
 H         3.465116        -2.628568         1.118861
 H         3.059898        -2.436749        -1.723660
 H         4.431871         0.091423        -0.987489
 H         4.021530        -0.737203        -2.568037
 H         1.167426         0.248280        -2.732148
