19
Iteration:   620
 C         0.052783        -0.007189        -0.022462
 C         1.528289        -0.059642        -0.064500
 O         1.972915         1.341490         0.172143
 C         2.087575        -0.996004         1.063737
 C         2.891547        -1.937594         0.606044
 C         3.064370        -1.813327        -0.890235
 C         3.650916        -0.391406        -1.284720
 C         2.189351        -0.566140        -1.316327
 O         1.604611        -0.478425        -2.667022
 H        -0.208543         0.439953         0.994288
 H        -0.395884         0.633552        -0.823679
 H        -0.380972        -1.004639         0.019616
 H         1.709009         1.562477         1.117196
 H         1.898748        -0.887986         2.147507
 H         3.344028        -2.728619         1.255040
 H         3.331789        -2.716594        -1.512250
 H         3.929285         0.174963        -0.438312
 H         4.268794        -0.199659        -2.206232
 H         0.810877        -1.015503        -2.535779
