19
Iteration:  3078charge 0 multiplicity 1
 C         0.064092        -0.129894        -0.038774
 C         1.570032         0.008738        -0.023075
 O         1.943742         1.340730         0.380551
 C         2.207278        -0.936423         1.059704
 C         2.938668        -1.910842         0.531228
 C         3.085877        -1.765640        -0.990867
 C         3.747569        -0.481609        -1.417504
 C         2.194817        -0.568768        -1.273338
 O         1.364263        -0.561021        -2.492108
 H        -0.363995         0.697164        -0.588994
 H        -0.323662        -1.033609        -0.500583
 H        -0.399068        -0.078663         0.992862
 H         1.400091         1.865030        -0.312346
 H         2.079830        -0.435090         2.039662
 H         3.576287        -2.630508         1.034312
 H         3.113565        -2.609482        -1.647585
 H         4.127427         0.175395        -0.695399
 H         3.980651        -0.523522        -2.525840
 H         1.301002         0.310889        -2.953827
