19
Iteration:  4031
 C         0.034520         0.206554         0.062407
 C         1.472977        -0.070097        -0.006558
 O         1.936802         1.264541         0.538279
 C         1.990084        -1.058621         0.939927
 C         2.982627        -1.831057         0.490744
 C         3.251224        -1.665607        -1.015023
 C         3.669616        -0.264220        -1.518094
 C         2.168531        -0.631871        -1.341805
 O         1.463153        -0.850757        -2.536551
 H        -0.478999         0.864312        -0.689855
 H        -0.543688        -0.719864        -0.029165
 H        -0.210258         0.551334         1.137681
 H         2.836097         1.308765         0.382504
 H         1.835332        -1.027081         1.990988
 H         3.533508        -2.578993         0.955646
 H         3.288398        -2.541353        -1.573387
 H         4.084190         0.503213        -0.767888
 H         4.149979        -0.329424        -2.473436
 H         1.383019        -0.079672        -3.079485
