19
Iteration:  3995
 C        -0.052448         0.001301        -0.089628
 C         1.487565        -0.066595         0.096448
 O         2.056676         1.288305         0.323234
 C         2.073734        -1.004523         1.117644
 C         3.041949        -1.830890         0.440873
 C         3.158771        -1.633832        -0.967029
 C         3.730264        -0.371402        -1.491854
 C         2.155311        -0.553338        -1.316555
 O         1.387340        -0.711885        -2.469527
 H        -0.292386         1.021684        -0.130157
 H        -0.289502        -0.708750        -1.028880
 H        -0.514139        -0.446218         0.757408
 H         2.497579         1.361825         1.125808
 H         1.706715        -0.904221         2.189519
 H         3.492875        -2.737211         0.997347
 H         3.026133        -2.522521        -1.661412
 H         4.128497         0.385984        -0.954742
 H         4.133590        -0.461598        -2.484315
 H         0.984159         0.100884        -2.732070
