19
Iteration:  2263charge 0 multiplicity 1
 C         0.067188        -0.180860         0.158337
 C         1.587298        -0.024379         0.027342
 O         1.985539         1.481226         0.041049
 C         2.203155        -0.944390         0.992062
 C         2.885499        -2.041090         0.542628
 C         3.004884        -1.850537        -0.996554
 C         3.669238        -0.456213        -1.240026
 C         2.187444        -0.595424        -1.298072
 O         1.388330        -0.414428        -2.490774
 H        -0.331055         0.634143        -0.566529
 H        -0.295508        -1.180490        -0.264846
 H        -0.424281        -0.107474         1.136825
 H         2.634977         1.476303        -0.633938
 H         2.029075        -0.649748         2.056042
 H         3.467274        -2.805261         1.096271
 H         3.245430        -2.613688        -1.703188
 H         4.021055        -0.026100        -0.298415
 H         4.353705        -0.418819        -2.071470
 H         1.172410         0.547240        -2.572347
