19
Iteration:  3969
 C         0.078602        -0.139565        -0.143122
 C         1.573800        -0.028149        -0.037389
 O         2.037691         1.303346         0.227005
 C         2.189171        -0.977869         1.036182
 C         3.005262        -1.958848         0.568078
 C         3.056910        -1.812902        -0.881105
 C         3.578794        -0.281141        -1.439135
 C         2.158562        -0.578579        -1.285493
 O         1.332207        -0.512744        -2.405374
 H        -0.408223         0.892944        -0.131288
 H        -0.145435        -0.628470        -0.987220
 H        -0.142594        -0.768299         0.743801
 H         1.830685         1.482775         1.103085
 H         1.935294        -0.587265         2.022869
 H         3.512050        -2.630573         1.156005
 H         3.176921        -2.604274        -1.586973
 H         4.319136         0.302276        -0.721264
 H         4.007926        -0.289423        -2.464151
 H         1.416679         0.307005        -2.882226
