19
Iteration:  3890
 C         0.078481        -0.350574         0.149892
 C         1.612464         0.023412         0.068013
 O         1.798352         1.416045         0.195668
 C         2.360269        -0.829383         1.141606
 C         2.863087        -1.952275         0.483094
 C         2.873805        -1.854538        -1.002210
 C         3.796965        -0.627376        -1.359754
 C         2.224796        -0.529639        -1.357820
 O         1.517907        -0.281555        -2.630547
 H        -0.415849        -0.361272        -0.830952
 H        -0.016571        -1.458372         0.432477
 H        -0.556260         0.266666         0.884748
 H         0.982791         1.831718         0.198251
 H         2.561276        -0.694296         2.191488
 H         3.118867        -2.871367         1.153499
 H         2.854528        -2.656731        -1.774043
 H         4.237141        -0.023272        -0.543431
 H         4.268981        -0.579219        -2.397346
 H         1.307925         0.655197        -2.622482
