19
Iteration:  2817
 C         0.159644        -0.246571        -0.139422
 C         1.682812         0.029899         0.051952
 O         1.844577         1.380966         0.399986
 C         2.176330        -0.872817         1.088211
 C         2.900304        -1.870453         0.489643
 C         2.911039        -1.650662        -0.977099
 C         3.730333        -0.556434        -1.502450
 C         2.211719        -0.478004        -1.320199
 O         1.411417        -0.598559        -2.403350
 H        -0.196190         0.433864        -1.055005
 H        -0.080014        -1.275657        -0.357888
 H        -0.380206         0.137903         0.856539
 H         2.809590         1.418835         0.559988
 H         2.110519        -0.753363         2.142517
 H         3.252729        -2.872901         0.834249
 H         2.571912        -2.527832        -1.628611
 H         4.510024        -0.082898        -0.889037
 H         3.844683        -0.645287        -2.555918
 H         1.305459         0.201065        -2.914247
