19
Iteration:  3047
 C         0.121681        -0.288777         0.075706
 C         1.688802         0.032919         0.004616
 O         1.956227         1.463318         0.091987
 C         2.254173        -0.922407         1.091340
 C         2.761386        -2.061009         0.453930
 C         2.990326        -1.753839        -1.020655
 C         3.743827        -0.375866        -1.279340
 C         2.239626        -0.500649        -1.295813
 O         1.387743        -0.566432        -2.416534
 H        -0.492120         0.328984        -0.524585
 H        -0.029486        -1.368907        -0.364315
 H        -0.075272         0.091438         1.135442
 H         1.144452         1.850773        -0.146057
 H         1.890550        -0.753332         2.144129
 H         3.052451        -3.034550         0.834066
 H         3.082709        -2.497248        -1.751807
 H         4.143453         0.233625        -0.490038
 H         4.267147        -0.283096        -2.268519
 H         1.038803         0.325050        -2.518792
