19
Iteration:   955
 C        -0.066182        -0.017389        -0.164307
 C         1.488629        -0.019247        -0.037284
 O         1.934436         1.282010         0.278935
 C         2.120112        -0.952199         1.065887
 C         2.897224        -1.901357         0.591730
 C         3.075524        -1.785703        -0.860368
 C         3.739733        -0.531481        -1.438060
 C         2.213456        -0.573168        -1.209948
 O         1.519140        -0.446067        -2.457493
 H        -0.487898         1.033945        -0.286359
 H        -0.528999        -0.633910        -1.022619
 H        -0.455175        -0.458056         0.786829
 H         2.747742         1.444843        -0.145360
 H         1.945432        -0.831666         2.122457
 H         3.434307        -2.667088         1.112280
 H         3.007466        -2.678821        -1.489120
 H         4.471747         0.029578        -0.863026
 H         3.965412        -0.554781        -2.549999
 H         2.130907         0.114518        -2.954168
