19
Iteration:  2151charge 0 multiplicity 1
 C         0.073619        -0.159863         0.023908
 C         1.611464         0.018722         0.050893
 O         1.813331         1.474860         0.207517
 C         2.243781        -0.957844         1.054809
 C         2.903781        -1.994162         0.512938
 C         2.995213        -1.846055        -0.969299
 C         3.654829        -0.549978        -1.412613
 C         2.228432        -0.532514        -1.232378
 O         1.440809        -0.450340        -2.467988
 H        -0.127903         0.464969        -0.838298
 H        -0.187256        -1.256615        -0.202665
 H        -0.477613         0.305390         0.907586
 H         2.757330         1.607495        -0.184253
 H         2.038894        -0.901215         2.089677
 H         3.366673        -2.652120         1.228932
 H         2.815047        -2.617990        -1.775736
 H         4.376726        -0.111804        -0.785152
 H         4.062808        -0.462887        -2.455047
 H         1.880868         0.303562        -2.934437
