19
Iteration:   567charge 0 multiplicity 1
 C         0.016905        -0.049885        -0.100860
 C         1.534588        -0.049265        -0.033269
 O         2.019750         1.294353         0.305167
 C         2.008746        -1.033488         1.076000
 C         2.923489        -1.901073         0.582071
 C         3.059120        -1.727833        -0.885712
 C         3.686036        -0.454310        -1.448215
 C         2.205594        -0.577344        -1.245529
 O         1.600444        -0.395925        -2.513629
 H        -0.440140         0.843834         0.398923
 H        -0.155815        -0.006046        -1.207571
 H        -0.410310        -1.041133         0.162883
 H         1.399769         1.857895        -0.267419
 H         1.666650        -0.927397         2.115347
 H         3.624959        -2.576273         1.121506
 H         3.078370        -2.751401        -1.347130
 H         4.271842         0.169344        -0.869702
 H         4.128765        -0.640270        -2.450202
 H         0.827457        -0.971029        -2.433351
