19
Iteration:  3282
 C         0.152335        -0.397366        -0.072815
 C         1.655498        -0.020304        -0.017541
 O         1.859796         1.460174         0.160048
 C         2.291022        -0.870475         1.009210
 C         2.851292        -1.939363         0.591399
 C         2.981820        -1.799177        -0.901276
 C         3.735238        -0.648107        -1.438941
 C         2.278239        -0.427359        -1.313796
 O         1.325750        -0.338769        -2.383642
 H        -0.428504         0.179072        -0.911787
 H         0.008250        -1.381532        -0.266046
 H        -0.452310        -0.202183         0.815204
 H         1.406848         1.663578         1.073205
 H         2.203273        -0.566409         2.051358
 H         3.206953        -2.746533         1.261812
 H         2.897720        -2.638837        -1.497636
 H         4.347849         0.038391        -0.798822
 H         4.250454        -0.771585        -2.340326
 H         1.361622         0.525674        -2.871957
