19
Iteration:  2489
 C         0.124857        -0.274520        -0.121036
 C         1.628449         0.048384         0.011864
 O         1.830799         1.424534         0.200500
 C         2.183400        -0.911546         1.086716
 C         2.961411        -1.873434         0.604596
 C         2.951708        -1.865697        -0.974126
 C         3.747867        -0.695998        -1.468171
 C         2.228850        -0.547558        -1.327892
 O         1.327574        -0.260971        -2.296595
 H        -0.265293        -0.084332        -1.117055
 H        -0.177906        -1.301758         0.031904
 H        -0.415541         0.391780         0.460784
 H         2.844193         1.647374         0.136322
 H         2.294561        -0.620023         2.078068
 H         3.297467        -2.738088         1.115301
 H         2.990950        -2.907363        -1.430490
 H         4.452763        -0.180101        -0.828363
 H         4.022114        -0.974330        -2.510833
 H         1.607023         0.414392        -2.916687
