19
Iteration:  4901charge 0 multiplicity 1
 C         0.057359         0.005194        -0.059953
 C         1.532863        -0.081328         0.037070
 O         1.965794         1.188165         0.453481
 C         2.093331        -0.961236         1.067611
 C         3.005279        -1.853756         0.482897
 C         3.101821        -1.655527        -1.001642
 C         3.716648        -0.359195        -1.527773
 C         2.175050        -0.567197        -1.320700
 O         1.316955        -0.644088        -2.511717
 H        -0.207382        -0.126944        -1.085058
 H        -0.371374        -0.731146         0.493116
 H        -0.253571         0.980605         0.345764
 H         2.984520         1.083917         0.645440
 H         1.935885        -0.617475         2.151488
 H         3.728300        -2.364686         1.107921
 H         3.241356        -2.487932        -1.648437
 H         4.217219         0.133066        -0.659198
 H         4.118635        -0.339932        -2.560081
 H         1.000629         0.237825        -2.770968
