19
Iteration:  3137charge 0 multiplicity 1
 C         0.001268        -0.019947        -0.108734
 C         1.601442        -0.050435        -0.024386
 O         1.976409         1.266779         0.497323
 C         2.112869        -0.970296         0.992798
 C         3.025597        -1.853471         0.594024
 C         3.124163        -1.759955        -0.928139
 C         3.669223        -0.413301        -1.547076
 C         2.203470        -0.560215        -1.362953
 O         1.314463        -0.600019        -2.426558
 H        -0.504228         0.510562        -0.961323
 H        -0.434922        -1.108186        -0.086095
 H        -0.311517         0.412353         0.833425
 H         1.734252         2.006444        -0.066508
 H         1.843552        -0.632090         1.982689
 H         3.740921        -2.510507         1.165110
 H         3.257017        -2.582067        -1.705970
 H         4.282660         0.265082        -0.909861
 H         4.335452        -0.559768        -2.352708
 H         1.658634        -0.139983        -3.187913
