19
Iteration:  1109charge 0 multiplicity 1
 C         0.145777        -0.183372        -0.199491
 C         1.589649         0.063073         0.046978
 O         1.836333         1.461933         0.267830
 C         2.091538        -0.984588         1.083858
 C         2.889682        -1.973789         0.519537
 C         2.988948        -1.835089        -0.966971
 C         3.675778        -0.506830        -1.344141
 C         2.213549        -0.480180        -1.215274
 O         1.473607        -0.508313        -2.448085
 H        -0.246227         0.794005        -0.490200
 H         0.042014        -1.001066        -0.911966
 H        -0.412958        -0.431003         0.782092
 H         2.848343         1.519368         0.082505
 H         1.974543        -0.776850         2.179515
 H         3.413897        -2.849764         1.007049
 H         3.239496        -2.624903        -1.689210
 H         4.428704        -0.132388        -0.644695
 H         4.014081        -0.420853        -2.318096
 H         1.702551         0.286814        -2.983253
