19
Iteration:   270
 C        -0.056991        -0.031291        -0.047901
 C         1.478473         0.008836         0.049927
 O         1.857932         1.456245         0.390036
 C         2.219000        -0.974722         1.084927
 C         2.872905        -1.993725         0.515563
 C         3.016345        -1.823374        -1.007940
 C         3.681429        -0.509018        -1.337623
 C         2.195330        -0.487652        -1.287796
 O         1.729218        -0.608077        -2.620608
 H        -0.586836         0.831351         0.370891
 H        -0.359228        -0.096588        -1.088305
 H        -0.552474        -0.887398         0.520061
 H         2.514354         1.778332        -0.200666
 H         1.971170        -0.804562         2.102406
 H         3.471850        -2.773015         0.998296
 H         3.002257        -2.730338        -1.653054
 H         4.226151        -0.010007        -0.548268
 H         4.070214        -0.460557        -2.390069
 H         1.092087         0.119590        -2.831014
