19
Iteration:  1237charge 0 multiplicity 1
 C         0.018025        -0.146816         0.073280
 C         1.584092         0.061716         0.037645
 O         1.920870         1.481122         0.203267
 C         2.048380        -0.996734         1.072349
 C         2.778557        -2.008936         0.507514
 C         3.112084        -1.743420        -0.974819
 C         3.765501        -0.501310        -1.282047
 C         2.170557        -0.551616        -1.340008
 O         1.572742        -0.536456        -2.567612
 H        -0.372287         0.509549        -0.696479
 H        -0.147288        -1.174325        -0.256586
 H        -0.189497         0.083985         1.101216
 H         2.573025         1.609903        -0.546830
 H         1.697527        -1.060131         2.091424
 H         3.118845        -2.905488         1.053538
 H         3.319485        -2.526379        -1.703940
 H         4.083693         0.073431        -0.349366
 H         4.430278        -0.483163        -2.090438
 H         0.977981         0.215317        -2.685472
