19
Iteration:   229
 C        -0.046458        -0.165295        -0.080519
 C         1.516426        -0.006377         0.021355
 O         1.938037         1.348316         0.136304
 C         2.045818        -0.930210         1.121171
 C         2.841726        -1.855609         0.526312
 C         3.127336        -1.808860        -0.930896
 C         3.775785        -0.544049        -1.380774
 C         2.262872        -0.604533        -1.294323
 O         1.458909        -0.373205        -2.421389
 H        -0.615194         0.300790         0.786893
 H        -0.302219         0.428121        -0.974245
 H        -0.218055        -1.209841        -0.164327
 H         2.834538         1.217950         0.634419
 H         1.670030        -0.954154         2.139172
 H         3.425172        -2.572403         1.125669
 H         3.358062        -2.703789        -1.552541
 H         4.219244        -0.060777        -0.577057
 H         4.259422        -0.508232        -2.394486
 H         1.843371         0.253239        -3.034860
