19
Iteration:   985charge 0 multiplicity 1
 C         0.155005        -0.152218        -0.222860
 C         1.615448         0.046199        -0.028828
 O         1.848478         1.386248         0.364662
 C         2.088161        -0.930435         1.030941
 C         2.841467        -1.962380         0.539684
 C         2.975989        -1.765702        -0.855608
 C         3.837406        -0.619295        -1.394766
 C         2.227987        -0.558159        -1.283313
 O         1.362660        -0.340235        -2.408497
 H        -0.095055         0.406656        -1.166250
 H        -0.067246        -1.263250        -0.366642
 H        -0.265305         0.074027         0.740229
 H         2.546606         1.809344        -0.256711
 H         1.824719        -0.955960         2.092521
 H         3.327976        -2.754530         1.066781
 H         3.023346        -2.677242        -1.453093
 H         4.335473         0.079155        -0.645900
 H         4.383770        -0.559350        -2.332847
 H         1.812282        -0.770983        -3.170520
