19
Iteration:  4057
 C        -0.048679         0.086916        -0.057524
 C         1.526456        -0.102959         0.077594
 O         2.071075         1.265362         0.432556
 C         2.068929        -1.077082         1.098179
 C         3.004570        -1.956041         0.513765
 C         3.112060        -1.618889        -0.974727
 C         3.624508        -0.218920        -1.451401
 C         2.170521        -0.516964        -1.339725
 O         1.425341        -0.770490        -2.542604
 H        -0.337347         0.205879        -1.153373
 H        -0.729087        -0.723888         0.215304
 H        -0.347547         0.958958         0.520137
 H         2.875214         1.343296        -0.015797
 H         1.671983        -1.211752         2.138522
 H         3.793438        -2.679981         1.002771
 H         3.310592        -2.529853        -1.647388
 H         4.064153         0.648624        -0.841472
 H         4.124229        -0.239212        -2.506815
 H         1.246046        -0.047203        -3.117457
