19
Iteration:  3437charge 0 multiplicity 1
 C        -0.029758         0.082740         0.018143
 C         1.531170        -0.047201         0.027493
 O         1.919599         1.301496         0.387591
 C         2.111405        -0.998807         0.977236
 C         3.068175        -1.878054         0.486774
 C         3.140171        -1.760857        -0.957466
 C         3.690732        -0.352606        -1.478033
 C         2.202429        -0.562166        -1.388596
 O         1.382293        -0.725486        -2.502203
 H        -0.432618         1.107673        -0.465531
 H        -0.510508        -0.684415        -0.573282
 H        -0.512691         0.093303         1.066785
 H         2.056674         1.331826         1.299641
 H         1.991378        -0.905415         2.077454
 H         3.670714        -2.400826         1.193323
 H         3.401578        -2.608905        -1.692028
 H         4.227869         0.242991        -0.691351
 H         4.311340        -0.512816        -2.458546
 H         1.505669         0.120180        -2.937413
