19
Iteration:  1903charge 0 multiplicity 1
 C         0.089635        -0.172638        -0.187767
 C         1.639915         0.014074         0.102156
 O         1.938189         1.366157         0.264850
 C         2.145639        -0.941578         1.119193
 C         3.003095        -1.919267         0.552877
 C         2.849242        -1.788307        -0.967880
 C         3.720431        -0.575443        -1.449842
 C         2.219373        -0.420809        -1.310272
 O         1.402542        -0.486621        -2.446659
 H        -0.262378         0.331121        -1.057520
 H        -0.090503        -1.272185        -0.190443
 H        -0.391336         0.368924         0.623206
 H         2.937133         1.394493         0.418937
 H         2.237878        -0.557373         2.181684
 H         3.374405        -2.825926         1.031863
 H         2.763295        -2.650154        -1.650136
 H         4.356612        -0.025973        -0.667760
 H         4.026167        -0.587218        -2.448211
 H         0.701592         0.210020        -2.416371
