19
Iteration:   236
 C        -0.012068        -0.131548        -0.055670
 C         1.552453        -0.091867        -0.008721
 O         1.890167         1.358809         0.218674
 C         2.036304        -0.885546         1.122747
 C         2.857851        -1.862502         0.521066
 C         3.061045        -1.837128        -0.955742
 C         3.773423        -0.534010        -1.341200
 C         2.238812        -0.577670        -1.360959
 O         1.478510        -0.417377        -2.456471
 H        -0.276958         0.538376         0.728144
 H        -0.285989         0.246293        -1.031734
 H        -0.488160        -1.213587        -0.025312
 H         2.888210         1.257567         0.386598
 H         1.682402        -0.770998         2.136885
 H         3.546957        -2.548247         1.025797
 H         3.402921        -2.697777        -1.533088
 H         4.343851         0.146057        -0.602483
 H         4.477330        -0.521469        -2.167464
 H         1.819447         0.352895        -2.954761
