19
Iteration:  4802charge 0 multiplicity 1
 C         0.024567        -0.293881         0.030002
 C         1.544014        -0.047348         0.009659
 O         1.902656         1.347488         0.226077
 C         2.240181        -0.957720         1.114970
 C         2.999580        -1.847346         0.445646
 C         2.856528        -1.738823        -1.029121
 C         3.681866        -0.552858        -1.422245
 C         2.148823        -0.562473        -1.265347
 O         1.543217        -0.305137        -2.440523
 H        -0.168860        -1.104244        -0.679633
 H        -0.323404        -0.451297         0.953097
 H        -0.424370         0.626433        -0.358891
 H         2.909085         1.452344         0.008122
 H         2.071653        -0.948962         2.149120
 H         3.683354        -2.577352         0.867047
 H         2.944883        -2.707492        -1.564290
 H         4.226508        -0.040244        -0.570664
 H         4.114244        -0.555711        -2.459511
 H         0.997670         0.449105        -2.300163
