19
Iteration:  4550
 C         0.089297        -0.033264        -0.024963
 C         1.559627        -0.083533         0.015756
 O         1.990738         1.288828         0.299631
 C         2.100808        -1.023466         1.081777
 C         2.903810        -1.998058         0.439087
 C         3.161075        -1.746072        -1.031296
 C         3.674066        -0.234434        -1.435251
 C         2.200647        -0.575161        -1.369111
 O         1.277849        -0.467959        -2.393911
 H        -0.235275        -1.076830        -0.357848
 H        -0.358307         0.015624         1.048781
 H        -0.234000         0.864036        -0.606874
 H         2.543681         1.357936         1.076957
 H         2.090348        -0.895134         2.207053
 H         3.409423        -2.640418         1.160442
 H         3.563624        -2.547321        -1.584245
 H         4.150248         0.443627        -0.707641
 H         4.112043        -0.441972        -2.456326
 H         1.494086        -1.073111        -3.170157
