19
Iteration:   884charge 0 multiplicity 1
 C         0.100196         0.027597        -0.073450
 C         1.594690         0.069810         0.002168
 O         1.890604         1.424219         0.201653
 C         1.993792        -0.962088         1.078041
 C         2.764556        -1.975261         0.543059
 C         3.087330        -1.776165        -0.924923
 C         3.793569        -0.456739        -1.352150
 C         2.223652        -0.583039        -1.319720
 O         1.575171        -0.640611        -2.505789
 H        -0.218740        -0.094564         1.004403
 H        -0.440481         0.868053        -0.485686
 H        -0.116922        -1.001618        -0.492033
 H         2.794876         1.531744         0.399153
 H         1.697515        -0.891539         2.126711
 H         3.127035        -2.909909         1.048456
 H         3.062440        -2.686169        -1.559697
 H         4.363197         0.089148        -0.645695
 H         4.069869        -0.197362        -2.434587
 H         0.634549        -0.563936        -2.320841
