19
Iteration:  2099charge 0 multiplicity 1
 C        -0.010095        -0.033737         0.106243
 C         1.550048        -0.021823        -0.065744
 O         1.963133         1.334999         0.155858
 C         2.172885        -0.934133         1.057743
 C         2.893516        -1.915125         0.492964
 C         3.050945        -1.807003        -0.985862
 C         3.705123        -0.489867        -1.315296
 C         2.181516        -0.646343        -1.344668
 O         1.472744        -0.436047        -2.520315
 H        -0.651296         0.620965        -0.448532
 H        -0.344919        -1.117955        -0.053141
 H        -0.132411         0.063346         1.152235
 H         2.941252         1.273569         0.258616
 H         1.999666        -0.746029         2.096797
 H         3.491730        -2.594965         1.163701
 H         3.423763        -2.656586        -1.589099
 H         4.091834         0.014315        -0.445835
 H         4.123167        -0.199135        -2.300952
 H         0.670136        -0.054941        -2.144998
