19
Iteration:  3211charge 0 multiplicity 1
 C         0.000780        -0.107813         0.230529
 C         1.544151        -0.027314        -0.024737
 O         1.945988         1.333714         0.289549
 C         2.100020        -0.852957         1.012987
 C         2.916550        -1.824005         0.490453
 C         3.137596        -1.830159        -0.975559
 C         3.720621        -0.509521        -1.424422
 C         2.195972        -0.663333        -1.388217
 O         1.517013        -0.534101        -2.572282
 H        -0.346751         0.570017        -0.445241
 H        -0.465121        -1.044445        -0.276117
 H        -0.504610         0.079060         1.168917
 H         1.137508         1.956774         0.430657
 H         2.001348        -0.639327         2.088809
 H         3.486868        -2.601032         1.118277
 H         3.184731        -2.708563        -1.692315
 H         4.214920         0.153475        -0.635320
 H         4.365591        -0.371101        -2.281782
 H         1.252897         0.392188        -2.794227
