19
Iteration:  2904
 C         0.014208        -0.110301         0.169613
 C         1.498029         0.015180         0.049447
 O         1.944416         1.412636         0.238473
 C         2.166890        -0.949329         1.051945
 C         2.881659        -1.936663         0.435154
 C         3.143020        -1.730732        -1.053517
 C         3.691091        -0.401527        -1.266475
 C         2.214888        -0.557408        -1.407949
 O         1.470230        -0.665751        -2.518583
 H        -0.573751         0.647035        -0.454579
 H        -0.329366        -1.064521        -0.210679
 H        -0.391907         0.232714         1.197723
 H         2.580414         1.535462        -0.415660
 H         1.799331        -0.973089         2.062640
 H         3.234138        -2.826117         0.994780
 H         3.397122        -2.593278        -1.776868
 H         4.183216         0.109627        -0.397156
 H         4.187653        -0.312754        -2.169981
 H         1.078456         0.149190        -2.871608
