19
Iteration:  1864
 C         0.001592        -0.072147         0.116445
 C         1.555347        -0.031100        -0.024931
 O         1.856671         1.417461         0.216880
 C         2.140012        -0.928058         1.031630
 C         2.968087        -1.928111         0.516944
 C         3.055001        -1.896812        -0.949196
 C         3.679841        -0.613595        -1.465948
 C         2.251014        -0.553455        -1.267591
 O         1.462760        -0.414779        -2.496564
 H        -0.432269         0.839756        -0.376644
 H        -0.487576        -0.830807        -0.575693
 H        -0.341381        -0.341362         1.103185
 H         2.686865         1.638345         0.696855
 H         2.189574        -0.660641         2.077716
 H         3.271279        -2.654305         1.320833
 H         3.107081        -2.745216        -1.665364
 H         4.284339         0.032747        -0.861043
 H         4.030650        -0.557132        -2.556924
 H         1.878265         0.322923        -2.962440
