19
Iteration:  4340
 C         0.118916         0.019076        -0.120178
 C         1.598863        -0.085105         0.011787
 O         1.945296         1.238346         0.421198
 C         2.119380        -1.048888         1.076913
 C         2.999845        -1.885996         0.509837
 C         3.136367        -1.652511        -0.943577
 C         3.573924        -0.324659        -1.519318
 C         2.143937        -0.609091        -1.292139
 O         1.387898        -0.561884        -2.533231
 H        -0.227691        -0.661233        -0.884172
 H        -0.527936        -0.372608         0.836201
 H        -0.055496         1.067358        -0.364855
 H         2.779655         1.247155         1.069890
 H         1.865946        -1.045512         2.138354
 H         3.680337        -2.512657         1.037079
 H         3.208742        -2.518723        -1.591124
 H         4.301858         0.196761        -0.969920
 H         3.840970        -0.368636        -2.550933
 H         0.621314        -0.006031        -2.392517
