19
Iteration:  2851charge 0 multiplicity 1
 C        -0.090808        -0.057888         0.015847
 C         1.519925        -0.014720         0.040170
 O         1.913905         1.360074         0.306482
 C         2.146988        -1.017486         1.049757
 C         3.015702        -1.836277         0.510149
 C         3.165248        -1.752798        -0.955103
 C         3.738398        -0.520972        -1.475136
 C         2.152047        -0.742418        -1.368248
 O         1.391715        -0.436734        -2.493801
 H        -0.368613         0.357119        -0.974706
 H        -0.537907        -1.075284         0.198864
 H        -0.458831         0.680377         0.847484
 H         2.767593         1.426045         0.648713
 H         2.092889        -0.873638         2.104316
 H         3.571295        -2.509575         1.193556
 H         3.329136        -2.772030        -1.491666
 H         4.370806         0.187317        -0.869237
 H         4.004733        -0.523962        -2.469280
 H         1.675404         0.445503        -2.786453
