19
Iteration:  4092charge 0 multiplicity 1
 C        -0.041795        -0.099746        -0.058549
 C         1.494342        -0.099125         0.010634
 O         1.929113         1.350284         0.310049
 C         2.161117        -1.003308         1.030498
 C         2.971991        -1.879091         0.469343
 C         3.141546        -1.778274        -1.005229
 C         3.759402        -0.426651        -1.400069
 C         2.213156        -0.543108        -1.309042
 O         1.371748        -0.489616        -2.400188
 H        -0.288328        -0.338761        -1.042056
 H        -0.367139        -0.906100         0.687820
 H        -0.393759         0.840599         0.189246
 H         2.867255         1.355780         0.145737
 H         1.729610        -0.999109         2.005217
 H         3.487609        -2.612794         1.138569
 H         3.243744        -2.656237        -1.646819
 H         4.328728         0.190172        -0.740386
 H         4.133533        -0.315821        -2.406007
 H         1.158051         0.429393        -2.520783
