19
Iteration:  2834
 C         0.077968        -0.123543        -0.089748
 C         1.558398        -0.036017        -0.029519
 O         1.888644         1.346587         0.369401
 C         2.154220        -0.923782         1.043367
 C         2.979433        -1.893455         0.581676
 C         3.030103        -1.826171        -0.946847
 C         3.733689        -0.520132        -1.541844
 C         2.277756        -0.439950        -1.314843
 O         1.309028        -0.506785        -2.430793
 H        -0.436475         0.153178        -0.985288
 H        -0.189892        -1.199992        -0.001724
 H        -0.413310         0.397061         0.661308
 H         2.769224         1.332053         0.720004
 H         1.785526        -0.743004         2.090512
 H         3.636997        -2.532759         1.156521
 H         3.057419        -2.649908        -1.580796
 H         4.299699         0.065813        -0.848124
 H         4.253424        -0.640166        -2.572242
 H         1.442338         0.346590        -2.864794
