19
Iteration:  4322
 C        -0.005868         0.052139        -0.122083
 C         1.526476        -0.087240         0.052290
 O         2.007105         1.223828         0.440709
 C         2.054004        -1.064856         1.055316
 C         3.036357        -1.909928         0.499947
 C         3.175091        -1.712467        -1.000266
 C         3.684819        -0.263721        -1.494970
 C         2.240154        -0.568565        -1.395643
 O         1.320548        -0.619010        -2.440958
 H        -0.600723        -0.709023        -0.599938
 H        -0.441478         0.154619         0.805852
 H        -0.273530         0.981577        -0.576176
 H         3.051926         1.241292         0.463065
 H         1.793482        -0.941072         2.125612
 H         3.475332        -2.737918         1.125258
 H         3.559785        -2.599647        -1.638370
 H         3.976051         0.603980        -0.907936
 H         4.232425        -0.169598        -2.443759
 H         0.566421        -0.048820        -2.265980
