19
Iteration:   301
 C         0.001657        -0.097661         0.014304
 C         1.533738         0.051286        -0.034690
 O         1.869450         1.349944         0.292386
 C         2.035024        -0.967484         1.046671
 C         2.818970        -1.983990         0.516502
 C         3.057680        -1.711139        -0.960708
 C         3.825236        -0.494684        -1.348802
 C         2.298259        -0.476270        -1.300740
 O         1.571917        -0.571977        -2.542090
 H        -0.516799         0.799503         0.326428
 H        -0.396971        -0.322916        -0.965609
 H        -0.168098        -1.021256         0.712339
 H         2.857855         1.527300         0.062007
 H         1.622960        -0.799679         2.019297
 H         3.280379        -2.737395         1.140521
 H         2.927681        -2.607700        -1.608690
 H         4.389703        -0.051735        -0.495818
 H         4.230289        -0.419869        -2.406297
 H         0.981499         0.153816        -2.763896
