19
Iteration:   414charge 0 multiplicity 1
 C         0.049606        -0.163647        -0.142047
 C         1.654638         0.045909         0.015341
 O         1.772895         1.499320         0.281148
 C         2.132136        -0.988322         1.090845
 C         2.735729        -2.063188         0.605104
 C         2.980213        -1.788217        -0.910754
 C         3.776036        -0.458568        -1.463957
 C         2.344875        -0.513960        -1.296149
 O         1.509058        -0.535177        -2.439194
 H        -0.187903        -0.648419         0.874183
 H        -0.439577         0.851287        -0.169864
 H        -0.160913        -0.952806        -0.800255
 H         2.623457         1.648417        -0.206836
 H         1.942874        -0.712377         2.140378
 H         3.385004        -2.758691         1.110417
 H         2.884444        -2.464008        -1.738176
 H         4.234167         0.225481        -0.731702
 H         4.113872        -0.503083        -2.442828
 H         2.120113        -0.141331        -3.062926
