19
Iteration:  2811
 C         0.168961        -0.222503        -0.087581
 C         1.630108         0.050499         0.090643
 O         1.826596         1.443136         0.406971
 C         2.229443        -0.881866         1.090965
 C         2.853107        -1.902145         0.477108
 C         2.875192        -1.705925        -0.997671
 C         3.748813        -0.539085        -1.539650
 C         2.220026        -0.483414        -1.262697
 O         1.441036        -0.634789        -2.442347
 H        -0.166093         0.381117        -0.857598
 H         0.092378        -1.234015        -0.586418
 H        -0.558464        -0.128268         0.665491
 H         2.849563         1.548626         0.469713
 H         2.093813        -0.683822         2.171202
 H         3.295973        -2.854840         0.731976
 H         2.639082        -2.473194        -1.726789
 H         4.504375        -0.032195        -0.905058
 H         3.991285        -0.700957        -2.606240
 H         1.376338         0.268976        -2.814585
