19
Iteration:  4426charge 0 multiplicity 1
 C         0.138347        -0.344004         0.105648
 C         1.585279        -0.063450         0.102750
 O         1.801894         1.404840         0.083662
 C         2.314788        -0.930925         1.116455
 C         2.851206        -2.021452         0.409158
 C         2.971718        -1.764636        -1.022510
 C         3.679411        -0.510246        -1.378618
 C         2.191138        -0.504377        -1.275578
 O         1.451866        -0.238933        -2.435853
 H         0.020466        -1.420946         0.191980
 H        -0.554001         0.253669         0.872479
 H        -0.244512        -0.178778        -0.918242
 H         2.722678         1.438210         0.511095
 H         2.195322        -1.056357         2.257447
 H         3.239256        -2.956994         0.946101
 H         3.011013        -2.572096        -1.825958
 H         4.166973         0.106586        -0.687604
 H         3.812927        -0.412511        -2.457488
 H         1.894000         0.632620        -2.729417
