19
Iteration:  3546
 C         0.063587        -0.240848        -0.069862
 C         1.609662         0.016104         0.059018
 O         1.802563         1.419679         0.369811
 C         2.253148        -0.877599         1.092737
 C         2.993596        -1.875701         0.537417
 C         2.910377        -1.809556        -0.965010
 C         3.707164        -0.635401        -1.553123
 C         2.277863        -0.508778        -1.294725
 O         1.495859        -0.432964        -2.471918
 H        -0.028551         0.116218        -1.153296
 H        -0.211402        -1.223896         0.077365
 H        -0.487644         0.163194         0.817352
 H         0.887069         1.764945         0.274917
 H         1.914504        -0.776064         2.148065
 H         3.426905        -2.700701         1.036628
 H         2.845253        -2.692346        -1.501370
 H         4.447075        -0.067224        -0.859986
 H         3.976425        -0.658970        -2.583531
 H         1.790426         0.282314        -3.076251
