19
Iteration:  3325charge 0 multiplicity 1
 C        -0.035789        -0.247546         0.264181
 C         1.444066         0.040495         0.066126
 O         1.854349         1.400710         0.007522
 C         2.318060        -0.969048         1.002572
 C         2.960029        -1.972054         0.489516
 C         2.964058        -1.806674        -1.033253
 C         3.628685        -0.513433        -1.337975
 C         2.210895        -0.555549        -1.246224
 O         1.672780        -0.426004        -2.568528
 H        -0.564560         0.743515        -0.088636
 H        -0.321445        -1.116083        -0.182725
 H        -0.229817        -0.179169         1.321155
 H         1.512002         2.006534         0.768838
 H         2.176441        -0.684115         2.059998
 H         3.517903        -2.821428         0.999470
 H         2.924499        -2.645630        -1.636066
 H         4.276849         0.020298        -0.622250
 H         4.023212        -0.374002        -2.279491
 H         1.492061         0.544815        -2.624564
