19
Iteration:   460
 C        -0.054769        -0.123304         0.001213
 C         1.470959        -0.030044        -0.066214
 O         1.871910         1.346379         0.107265
 C         2.126552        -0.947031         1.030448
 C         2.929073        -1.927719         0.627480
 C         3.040095        -1.879990        -0.889596
 C         3.725940        -0.506589        -1.294184
 C         2.236798        -0.603337        -1.331106
 O         1.582784        -0.310986        -2.563662
 H        -0.353460        -0.774178         0.776556
 H        -0.289054         0.911429         0.168448
 H        -0.320481        -0.671155        -0.915769
 H         2.868103         1.332683         0.412209
 H         2.229196        -0.600795         2.033029
 H         3.681008        -2.206663         1.341180
 H         3.090397        -2.933452        -1.252890
 H         4.187026        -0.084477        -0.456611
 H         4.277327        -0.641937        -2.223540
 H         0.769863         0.130924        -2.315223
