19
Iteration:  4658
 C        -0.029546         0.000538        -0.008845
 C         1.577427        -0.043551         0.000929
 O         1.945744         1.320944         0.337772
 C         2.120798        -1.042111         1.062148
 C         2.949153        -1.974887         0.442805
 C         3.157923        -1.746236        -1.038552
 C         3.699508        -0.342805        -1.490188
 C         2.230379        -0.557773        -1.284662
 O         1.433066        -0.516811        -2.390525
 H        -0.539138        -0.807974        -0.547595
 H        -0.246475        -0.020960         1.056630
 H        -0.317605         0.947617        -0.363980
 H         2.817499         1.497440        -0.124753
 H         1.726532        -1.064063         2.108143
 H         3.368216        -2.871097         0.868493
 H         2.910005        -2.494062        -1.711690
 H         4.291203         0.171909        -0.712829
 H         4.080272        -0.201224        -2.540169
 H         0.501383        -0.732516        -2.172280
