19
Iteration:   907charge 0 multiplicity 1
 C        -0.048276         0.032875         0.063318
 C         1.502296        -0.023307        -0.031852
 O         1.944957         1.349414         0.208012
 C         2.145092        -0.888898         0.970628
 C         2.775161        -2.022554         0.572120
 C         3.059418        -1.760002        -0.900478
 C         3.778531        -0.435739        -1.274655
 C         2.199924        -0.573578        -1.369149
 O         1.621205        -0.631543        -2.592288
 H        -0.369418         0.825756         0.800484
 H        -0.364151         0.440781        -0.922322
 H        -0.591899        -0.920181         0.260843
 H         2.836732         1.381833         0.680057
 H         1.827726        -0.679666         2.012420
 H         3.174592        -2.890199         1.147293
 H         3.343663        -2.499053        -1.664382
 H         4.118104         0.349356        -0.569283
 H         4.379873        -0.470574        -2.182820
 H         0.760094        -0.168199        -2.566422
