19
Iteration:  2410charge 0 multiplicity 1
 C        -0.032140         0.031115         0.313286
 C         1.507980        -0.063951         0.000143
 O         1.863533         1.329830         0.161589
 C         2.180354        -0.937836         0.947962
 C         2.900750        -1.954532         0.480650
 C         2.985068        -1.768307        -0.989257
 C         3.754358        -0.469756        -1.330155
 C         2.262383        -0.540038        -1.323252
 O         1.502776        -0.598578        -2.609683
 H        -0.209742         1.033987         0.094197
 H        -0.693403        -0.656921        -0.305828
 H        -0.191261        -0.128536         1.383339
 H         2.890095         1.371691         0.109856
 H         2.057929        -0.764837         2.106307
 H         3.485448        -2.811542         0.951973
 H         3.223614        -2.618121        -1.531910
 H         4.267540         0.249917        -0.584844
 H         4.311436        -0.481361        -2.284087
 H         1.399015         0.345729        -2.757640
