19
Iteration:   843charge 0 multiplicity 1
 C        -0.031095        -0.025926        -0.183057
 C         1.530106        -0.000680        -0.086215
 O         1.881736         1.269823         0.326760
 C         2.106318        -0.831989         1.082897
 C         2.908163        -1.842356         0.639478
 C         3.006388        -1.859874        -0.877177
 C         3.763848        -0.668089        -1.433190
 C         2.238391        -0.626781        -1.216667
 O         1.565407        -0.344228        -2.496934
 H        -0.452427        -0.267336         0.823083
 H        -0.428791         0.973411        -0.542707
 H        -0.187516        -0.736965        -1.000769
 H         2.705886         1.530584        -0.222368
 H         2.012482        -0.367305         2.075709
 H         3.538934        -2.415847         1.373171
 H         3.143357        -2.773233        -1.485345
 H         4.331826        -0.039051        -0.758039
 H         3.886674        -0.498786        -2.517745
 H         1.143662        -1.134479        -2.910014
