19
Iteration:  3012
 C        -0.020614        -0.245325         0.133560
 C         1.601153        -0.056750         0.044470
 O         1.875923         1.369505         0.065417
 C         2.257176        -0.904642         1.105879
 C         2.964078        -1.900877         0.551292
 C         2.945738        -1.773579        -1.002389
 C         3.713948        -0.539100        -1.406978
 C         2.217983        -0.562258        -1.312619
 O         1.510170        -0.378011        -2.520530
 H        -0.660365         0.279188        -0.586292
 H        -0.347124        -1.231191         0.360984
 H        -0.259025         0.116532         1.189342
 H         1.420352         1.749166         0.812913
 H         1.882535        -0.741432         2.118421
 H         3.431293        -2.793571         0.991813
 H         3.050540        -2.618035        -1.765475
 H         4.289736        -0.007590        -0.658935
 H         4.097621        -0.449423        -2.476940
 H         1.882687         0.432696        -2.857955
