19
Iteration:    63
 C        -0.012343        -0.053605        -0.075765
 C         1.550340        -0.041124         0.060661
 O         2.016310         1.379408         0.287274
 C         2.130392        -1.080105         1.114010
 C         2.902804        -2.034707         0.552132
 C         3.001799        -1.765013        -0.920680
 C         3.702957        -0.378766        -1.446971
 C         2.189732        -0.514095        -1.279724
 O         1.462972        -0.472603        -2.488569
 H        -0.543773         0.709892         0.452577
 H        -0.191543         0.109046        -1.139401
 H        -0.443559        -1.056646         0.334458
 H         1.506534         1.802930        -0.372911
 H         2.242523        -0.729270         2.158596
 H         3.485179        -2.817179         1.036999
 H         3.216076        -2.599295        -1.570175
 H         4.343383         0.210470        -0.816883
 H         4.117049        -0.374799        -2.499671
 H         2.124594        -0.546219        -3.179243
