19
Iteration:  1208charge 0 multiplicity 1
 C         0.038870        -0.127702        -0.089967
 C         1.563079        -0.045493        -0.068548
 O         1.974176         1.247580         0.195772
 C         2.136536        -0.943687         1.007717
 C         2.749391        -2.037403         0.554205
 C         2.996760        -1.724379        -0.961038
 C         3.786026        -0.291959        -1.239070
 C         2.217079        -0.554433        -1.293052
 O         1.494846        -0.516939        -2.406590
 H        -0.342345         0.450977        -0.965953
 H        -0.348351        -1.120473        -0.088857
 H        -0.104491         0.667481         0.777159
 H         2.687476         1.482276        -0.537671
 H         1.952994        -0.618742         1.995010
 H         3.145161        -2.809639         1.116300
 H         3.206949        -2.469588        -1.724264
 H         4.220871         0.177745        -0.380807
 H         4.479332        -0.159006        -2.065390
 H         0.858835         0.207850        -2.456863
