19
Iteration:   507charge 0 multiplicity 1
 C        -0.021791        -0.131830        -0.009989
 C         1.512341         0.043458         0.045306
 O         1.866696         1.443899         0.215594
 C         2.072294        -0.960932         1.085058
 C         2.859501        -1.950788         0.518497
 C         2.985881        -1.801308        -0.962051
 C         3.790238        -0.568135        -1.374992
 C         2.274296        -0.478045        -1.229863
 O         1.578633        -0.455608        -2.529859
 H        -0.432983        -0.652654         0.836188
 H        -0.420423         0.839129        -0.209999
 H        -0.069843        -0.833123        -0.857401
 H         2.761479         1.793148        -0.066120
 H         2.060435        -0.635607         2.186333
 H         3.427540        -2.714062         1.107666
 H         3.004383        -2.621526        -1.672595
 H         4.464633        -0.084029        -0.605665
 H         4.046543        -0.548740        -2.451758
 H         1.469285        -1.363427        -2.883002
