19
Iteration:  4197
 C         0.103888        -0.329379        -0.038401
 C         1.578289        -0.000904         0.032130
 O         1.648482         1.441450         0.186668
 C         2.365380        -0.903562         1.141638
 C         2.865799        -2.025721         0.514678
 C         2.926936        -1.905425        -0.974113
 C         3.746138        -0.605034        -1.554244
 C         2.286154        -0.520634        -1.271054
 O         1.513463        -0.174544        -2.379525
 H        -0.154004        -1.285653         0.529327
 H        -0.530100         0.433406         0.407578
 H        -0.251016        -0.287614        -1.105662
 H         2.650989         1.620459         0.373132
 H         2.297390        -0.874430         2.187258
 H         3.317739        -2.850694         1.090309
 H         2.887156        -2.756112        -1.640436
 H         4.460256        -0.105309        -0.836959
 H         3.905680        -0.657954        -2.669475
 H         1.460885         0.800237        -2.241154
