19
Iteration:  4682
 C         0.035365        -0.128290         0.088408
 C         1.532032        -0.060992         0.006686
 O         1.922367         1.303027         0.241192
 C         2.196214        -1.018964         1.037670
 C         2.937089        -1.952709         0.493605
 C         3.043596        -1.809779        -0.959829
 C         3.722482        -0.459166        -1.368490
 C         2.193386        -0.513911        -1.341049
 O         1.400298        -0.267533        -2.483282
 H        -0.236891        -1.081199        -0.471927
 H        -0.297209        -0.115697         1.080409
 H        -0.332077         0.808546        -0.472206
 H         2.615447         1.472713        -0.329250
 H         2.142270        -0.758766         2.125206
 H         3.669679        -2.673072         0.973990
 H         3.209141        -2.583371        -1.749369
 H         4.370044         0.132854        -0.624641
 H         4.201875        -0.657370        -2.357977
 H         0.682740        -0.968094        -2.566302
