19
Iteration:   886charge 0 multiplicity 1
 C         0.083569         0.018892        -0.060280
 C         1.604892         0.052631        -0.009686
 O         1.886035         1.428326         0.203829
 C         2.009202        -0.963779         1.066062
 C         2.745676        -1.962320         0.521478
 C         3.090731        -1.787770        -0.917821
 C         3.763265        -0.432259        -1.351961
 C         2.238618        -0.587914        -1.321600
 O         1.589418        -0.647897        -2.502541
 H        -0.133715         0.031365         1.071123
 H        -0.464491         0.913230        -0.523423
 H        -0.140682        -0.996356        -0.462566
 H         2.856694         1.462705         0.442162
 H         1.714143        -0.863415         2.127815
 H         3.086999        -2.877329         1.056078
 H         3.076433        -2.692502        -1.548392
 H         4.373826         0.097030        -0.571689
 H         4.072229        -0.277737        -2.399525
 H         0.638437        -0.523622        -2.317745
