19
Iteration:  4465
 C         0.073712        -0.262076         0.094465
 C         1.564203        -0.067030         0.024672
 O         1.740207         1.369994         0.321165
 C         2.241678        -0.944303         1.063058
 C         2.973908        -1.924285         0.466822
 C         2.971885        -1.845528        -1.041541
 C         3.769339        -0.660583        -1.419719
 C         2.215671        -0.524560        -1.342641
 O         1.500657        -0.184550        -2.496438
 H        -0.221686        -1.368922         0.095532
 H        -0.342605         0.230008         0.944521
 H        -0.459765         0.148235        -0.834087
 H         2.346817         1.826415        -0.381430
 H         2.227315        -0.702234         2.109839
 H         3.696740        -2.544608         0.929349
 H         2.895184        -2.754833        -1.536777
 H         4.396576        -0.016146        -0.743351
 H         4.240251        -0.580062        -2.435937
 H         0.754473         0.349238        -2.267109
