19
Iteration:   230charge 0 multiplicity 1
 C        -0.045103        -0.167210        -0.076510
 C         1.522909        -0.015853         0.018301
 O         1.933118         1.350402         0.145719
 C         2.042151        -0.921342         1.125278
 C         2.842338        -1.855842         0.520813
 C         3.121862        -1.814234        -0.934454
 C         3.775143        -0.545883        -1.377522
 C         2.259277        -0.602338        -1.303025
 O         1.461950        -0.377483        -2.424019
 H        -0.585839         0.347391         0.794668
 H        -0.289699         0.420062        -0.994419
 H        -0.239860        -1.187228        -0.146231
 H         2.829473         1.205648         0.603412
 H         1.655280        -0.934190         2.157663
 H         3.450600        -2.561284         1.104987
 H         3.377789        -2.693464        -1.553870
 H         4.231703        -0.035679        -0.577592
 H         4.300274        -0.505504        -2.366412
 H         1.833188         0.262527        -3.028705
