19
Iteration:  2264
 C         0.067994        -0.180056         0.168651
 C         1.580177        -0.024955         0.025015
 O         1.989069         1.479437         0.043381
 C         2.199207        -0.948698         0.997371
 C         2.887097        -2.039656         0.538062
 C         3.008350        -1.844694        -0.985631
 C         3.659126        -0.452864        -1.234329
 C         2.188103        -0.603428        -1.307987
 O         1.395734        -0.417202        -2.495366
 H        -0.336672         0.627078        -0.549280
 H        -0.269888        -1.143983        -0.229270
 H        -0.444355        -0.099970         1.130936
 H         2.658115         1.488989        -0.665439
 H         2.052305        -0.643937         2.016811
 H         3.418424        -2.805400         1.084926
 H         3.245134        -2.613711        -1.733267
 H         4.036030        -0.048750        -0.312719
 H         4.342861        -0.362598        -2.105048
 H         1.172171         0.548197        -2.607284
