19
Iteration:   576charge 0 multiplicity 1
 C        -0.030206        -0.019925        -0.110581
 C         1.514334        -0.044362         0.030302
 O         2.024130         1.205947         0.235517
 C         1.986514        -1.047612         1.073698
 C         3.009090        -1.823021         0.641560
 C         3.026421        -1.784607        -0.925950
 C         3.746017        -0.452976        -1.440044
 C         2.233913        -0.569288        -1.286680
 O         1.636649        -0.405100        -2.487008
 H        -0.566146         0.801419         0.474842
 H        -0.540223         0.110816        -1.098976
 H        -0.498263        -0.824191         0.401383
 H         1.368610         1.913527        -0.092177
 H         1.585557        -0.984387         2.051604
 H         3.449002        -2.604253         1.253441
 H         2.984895        -2.562124        -1.721298
 H         4.278072         0.215438        -0.794331
 H         3.931656        -0.403331        -2.548252
 H         0.739229        -0.769027        -2.470607
