19
Iteration:   484
 C        -0.050580        -0.076459         0.003297
 C         1.499485        -0.058538        -0.064124
 O         1.818014         1.333378         0.133612
 C         2.170047        -0.876261         1.138191
 C         2.927467        -1.897819         0.618321
 C         3.051195        -1.840739        -0.901081
 C         3.734705        -0.562438        -1.402181
 C         2.221690        -0.640013        -1.285404
 O         1.656981        -0.269076        -2.548590
 H        -0.222434        -0.592924         0.890336
 H        -0.202267         0.944568         0.190680
 H        -0.583563        -0.609815        -0.818387
 H         2.703672         1.518459         0.391340
 H         1.631248        -1.022429         2.136231
 H         3.221311        -2.805220         1.211969
 H         3.149282        -2.831955        -1.408028
 H         4.215054         0.110819        -0.716271
 H         4.060842        -0.654329        -2.487141
 H         0.898840        -0.837177        -2.826099
