19
Iteration:   262
 C        -0.027578         0.006410        -0.052189
 C         1.540885         0.061876        -0.023653
 O         1.813403         1.339384         0.370807
 C         2.203440        -0.969847         1.022311
 C         2.916110        -2.021230         0.580561
 C         3.035170        -1.805950        -0.904631
 C         3.688902        -0.524495        -1.321228
 C         2.158706        -0.485513        -1.278683
 O         1.652569        -0.570743        -2.651267
 H        -0.460926         0.886478         0.519348
 H        -0.398910        -0.178470        -1.082942
 H        -0.309619        -0.915235         0.347058
 H         2.515658         1.678932        -0.211314
 H         2.032603        -0.719893         2.092362
 H         3.494280        -2.798760         1.110417
 H         2.868599        -2.574566        -1.673896
 H         4.310466        -0.100392        -0.613699
 H         4.170267        -0.234066        -2.267409
 H         1.250086         0.324812        -2.783266
