19
Iteration:  1382charge 0 multiplicity 1
 C        -0.026729         0.028865         0.157578
 C         1.461833        -0.108411        -0.037955
 O         1.975580         1.270130         0.128577
 C         2.225411        -0.967575         1.058115
 C         2.882399        -2.000281         0.465287
 C         3.067028        -1.775270        -0.943554
 C         3.657778        -0.425883        -1.253515
 C         2.212397        -0.551962        -1.328473
 O         1.585685        -0.505136        -2.599633
 H        -0.218520         0.857232        -0.539972
 H        -0.682340        -0.796096         0.004786
 H        -0.134392         0.274033         1.259471
 H         1.318478         1.893120         0.279474
 H         1.996339        -0.696061         2.152857
 H         3.188644        -2.941668         1.041007
 H         3.164739        -2.674612        -1.558741
 H         3.921357         0.103036        -0.354966
 H         4.287180        -0.305234        -2.079406
 H         1.541626         0.449019        -2.874425
