19
Iteration:  3881charge 0 multiplicity 1
 C         0.037291        -0.451442         0.096638
 C         1.605637        -0.006938         0.047212
 O         1.873681         1.481903         0.190548
 C         2.408553        -0.856030         1.051453
 C         2.826041        -1.960647         0.551667
 C         2.892540        -1.780138        -1.014353
 C         3.759960        -0.657446        -1.374726
 C         2.216318        -0.462438        -1.331883
 O         1.486590        -0.285736        -2.539638
 H        -0.327123        -0.362591        -0.976243
 H        -0.119959        -1.419960         0.397570
 H        -0.747983         0.124845         0.674434
 H         1.044989         1.869037         0.145204
 H         2.437922        -0.565110         2.135548
 H         3.379890        -2.861315         0.957313
 H         2.792805        -2.749745        -1.493789
 H         4.232651        -0.212878        -0.392292
 H         4.381414        -0.697372        -2.356969
 H         1.326617         0.657020        -2.606666
