19
Iteration:  4386charge 0 multiplicity 1
 C         0.019404        -0.190435         0.091683
 C         1.541552        -0.017780         0.026220
 O         1.853170         1.344128         0.319502
 C         2.200439        -0.892662         1.000621
 C         2.922623        -1.950902         0.383995
 C         3.040859        -1.726423        -1.079102
 C         3.800642        -0.543140        -1.408589
 C         2.187899        -0.486339        -1.283037
 O         1.414166        -0.469888        -2.492424
 H        -0.261930        -1.192451        -0.136914
 H        -0.110493        -0.141733         1.300765
 H        -0.359893         0.673629        -0.369823
 H         2.237700         1.375263         1.217037
 H         1.989564        -0.844967         2.111384
 H         3.492195        -2.656250         1.094869
 H         3.043436        -2.601833        -1.846519
 H         4.315535         0.131443        -0.736632
 H         4.232190        -0.468978        -2.402472
 H         1.690398         0.239921        -3.038066
