19
Iteration:  1836
 C         0.020258        -0.076412         0.212850
 C         1.567265         0.001033         0.024639
 O         1.857312         1.364680         0.193057
 C         2.183630        -0.976892         1.111698
 C         2.902884        -1.915121         0.516710
 C         2.894291        -1.778527        -0.979604
 C         3.789453        -0.500793        -1.392918
 C         2.177184        -0.502449        -1.282574
 O         1.512568        -0.502026        -2.634830
 H        -0.469126         0.891423         0.078973
 H        -0.300021        -0.714701        -0.582408
 H        -0.217742        -0.502408         1.231817
 H         2.709816         1.557033        -0.191545
 H         2.115508        -0.874568         2.226493
 H         3.207214        -2.858740         0.950916
 H         2.993403        -2.553776        -1.721566
 H         4.433503        -0.097914        -0.594030
 H         3.998949        -0.461238        -2.478250
 H         2.295950        -0.384468        -3.167114
