19
Iteration:  1267
 C        -0.081574        -0.060913         0.030806
 C         1.564217        -0.011790        -0.006946
 O         1.774128         1.334671         0.240840
 C         2.135442        -0.902682         1.119474
 C         2.835681        -1.881767         0.543691
 C         2.985956        -1.884910        -0.995566
 C         3.759470        -0.575409        -1.431775
 C         2.295638        -0.498173        -1.304550
 O         1.652573        -0.485833        -2.518894
 H        -0.405785         0.835360        -0.542499
 H        -0.497016        -1.059773        -0.354746
 H        -0.387563        -0.019385         1.048207
 H         2.653174         1.371469         0.531803
 H         2.177206        -0.654477         2.222089
 H         3.648004        -2.503676         1.065166
 H         2.930989        -2.647775        -1.773474
 H         4.389370        -0.147634        -0.546242
 H         4.106635        -0.549568        -2.466724
 H         1.728720         0.387614        -2.982516
