19
Iteration:  4095charge 0 multiplicity 1
 C        -0.035582        -0.122322        -0.043502
 C         1.487554        -0.110583         0.005645
 O         1.905674         1.378949         0.306328
 C         2.164463        -0.988569         1.043280
 C         2.986763        -1.913975         0.473288
 C         3.137195        -1.782353        -0.986997
 C         3.785792        -0.428057        -1.422207
 C         2.220896        -0.543004        -1.324443
 O         1.371790        -0.470754        -2.424731
 H        -0.372288        -0.343192        -1.048878
 H        -0.362768        -0.850751         0.735311
 H        -0.431863         0.893929         0.217133
 H         2.854492         1.322116         0.190543
 H         1.847775        -1.038641         2.089275
 H         3.421889        -2.584966         1.118265
 H         3.177613        -2.615447        -1.623718
 H         4.230932         0.135713        -0.626403
 H         4.140040        -0.477473        -2.409963
 H         1.200979         0.501145        -2.471488
