19
Iteration:  4293
 C         0.050245         0.098753         0.018280
 C         1.476984        -0.065827         0.045674
 O         2.001772         1.236901         0.408426
 C         1.991141        -1.189634         0.928059
 C         2.964062        -1.864480         0.412257
 C         3.135244        -1.612778        -1.065481
 C         3.767136        -0.253561        -1.388291
 C         2.181523        -0.493216        -1.273438
 O         1.417733        -0.772875        -2.413208
 H        -0.497315        -0.863223         0.428495
 H        -0.241155         0.825150         0.815253
 H        -0.414999         0.450914        -1.018284
 H         2.848627         1.383717        -0.112765
 H         1.652241        -1.127724         1.954097
 H         3.553649        -2.677194         0.879895
 H         3.205270        -2.428944        -1.768295
 H         4.488948         0.333444        -0.709321
 H         3.999762        -0.004850        -2.458159
 H         1.010908         0.046784        -2.834059
