19
Iteration:  2921
 C         0.023932        -0.181216         0.055713
 C         1.666642         0.058110        -0.002316
 O         1.890874         1.467516         0.324402
 C         2.171818        -0.917649         0.985370
 C         2.805388        -1.991661         0.453760
 C         3.084630        -1.753809        -0.938503
 C         3.780660        -0.379764        -1.437198
 C         2.267249        -0.554886        -1.274306
 O         1.392418        -0.680996        -2.478192
 H        -0.460483         0.632574        -0.502260
 H        -0.074506        -1.194647        -0.373752
 H        -0.274466        -0.226205         1.060684
 H         2.434649         1.867496        -0.309091
 H         1.719143        -0.908385         2.015682
 H         2.921200        -2.936126         0.977499
 H         3.092677        -2.546660        -1.629632
 H         4.240430         0.209661        -0.617398
 H         4.366273        -0.241692        -2.396486
 H         1.015003         0.216053        -2.654771
