19
Iteration:  4021
 C        -0.029225         0.126795         0.067261
 C         1.520239        -0.066994        -0.061053
 O         1.944123         1.287106         0.499081
 C         1.978819        -1.067033         0.959373
 C         3.006516        -1.841623         0.468130
 C         3.155515        -1.686005        -0.999721
 C         3.684000        -0.305262        -1.511538
 C         2.235809        -0.560754        -1.376940
 O         1.473628        -0.854462        -2.476714
 H        -0.220217         1.146813        -0.388111
 H        -0.657267        -0.676853        -0.233288
 H        -0.128675         0.355737         1.197657
 H         2.869254         1.255750         0.688339
 H         1.559987        -0.938951         1.928091
 H         3.710823        -2.267025         1.114732
 H         3.254252        -2.459631        -1.697603
 H         4.090566         0.515904        -0.781871
 H         4.004968        -0.204454        -2.557086
 H         1.324783        -0.051139        -2.957383
