19
Iteration:  1417
 C         0.038997        -0.079541         0.012599
 C         1.497066        -0.058583         0.012509
 O         2.088621         1.301540         0.235693
 C         2.028934        -1.054307         1.077141
 C         2.932388        -1.860329         0.512190
 C         3.060702        -1.782801        -0.940300
 C         3.654513        -0.504934        -1.379380
 C         2.191649        -0.491153        -1.335733
 O         1.481557        -0.467445        -2.494528
 H        -0.450244         0.519396        -0.792566
 H        -0.359276        -1.131559        -0.212260
 H        -0.330177         0.475338         0.886598
 H         1.541987         2.029285         0.135904
 H         1.815903        -1.106035         2.144036
 H         3.638605        -2.560103         1.031184
 H         3.119331        -2.719996        -1.489020
 H         4.166606         0.085165        -0.564653
 H         4.164405        -0.469516        -2.316714
 H         1.838523         0.314880        -2.972903
