19
Iteration:   452charge 0 multiplicity 1
 C        -0.071671        -0.153450        -0.053680
 C         1.484766        -0.033272        -0.066836
 O         1.903163         1.371477         0.136461
 C         2.173247        -0.911525         1.059360
 C         2.944395        -1.900720         0.597957
 C         2.986660        -1.876851        -0.886424
 C         3.771666        -0.533098        -1.276906
 C         2.223895        -0.612729        -1.298327
 O         1.550166        -0.359477        -2.542285
 H        -0.288363        -0.762605         0.786646
 H        -0.577149         0.791369         0.033082
 H        -0.579758        -0.578076        -0.969488
 H         2.927144         1.445815         0.214688
 H         1.960685        -0.715690         2.154447
 H         3.687455        -2.474033         1.224860
 H         3.055002        -2.740150        -1.589570
 H         4.197559        -0.013234        -0.422451
 H         4.415570        -0.422216        -2.231152
 H         0.906912         0.345756        -2.401918
