19
Iteration:  3839
 C         0.090650        -0.290212        -0.044084
 C         1.617492        -0.060488         0.072782
 O         1.842936         1.401933         0.202916
 C         2.281300        -0.921778         1.157583
 C         2.942333        -1.879120         0.580596
 C         2.993930        -1.833407        -0.908841
 C         3.724216        -0.615940        -1.563470
 C         2.230261        -0.527192        -1.274592
 O         1.401805        -0.273717        -2.457927
 H        -0.278065         0.327552        -0.951532
 H        -0.245974        -1.265603        -0.217611
 H        -0.472919         0.159880         0.803683
 H         0.990671         1.856576         0.295113
 H         1.884311        -0.780056         2.199743
 H         3.553546        -2.704990         1.007584
 H         2.928373        -2.687594        -1.586872
 H         4.429249        -0.154732        -0.780459
 H         3.926529        -0.793992        -2.673524
 H         1.924451         0.344140        -3.033472
