19
Iteration:   506charge 0 multiplicity 1
 C        -0.028400        -0.128952        -0.000731
 C         1.513266         0.040858         0.053509
 O         1.864637         1.443946         0.208735
 C         2.075480        -0.961872         1.084585
 C         2.864249        -1.949580         0.520749
 C         2.988686        -1.805682        -0.949669
 C         3.789351        -0.564035        -1.381252
 C         2.274832        -0.483992        -1.236773
 O         1.583049        -0.449536        -2.531683
 H        -0.457637        -0.652646         0.806769
 H        -0.448621         0.828042        -0.212944
 H        -0.087024        -0.821520        -0.876370
 H         2.783268         1.792296        -0.050880
 H         2.036927        -0.647295         2.186079
 H         3.418911        -2.728449         1.113968
 H         2.998875        -2.634693        -1.676131
 H         4.456132        -0.119842        -0.627397
 H         4.059618        -0.530109        -2.469895
 H         1.457150        -1.336164        -2.891598
