19
Iteration:  4102charge 0 multiplicity 1
 C        -0.025245        -0.150341        -0.005552
 C         1.525423        -0.087525         0.005773
 O         1.839528         1.409262         0.287098
 C         2.173075        -0.989903         1.060836
 C         2.983532        -1.958376         0.510742
 C         3.098526        -1.748041        -0.955926
 C         3.790591        -0.459670        -1.453053
 C         2.251399        -0.569750        -1.335864
 O         1.388693        -0.413500        -2.491944
 H        -0.524135        -0.447018        -0.894784
 H        -0.482958        -0.800862         0.814533
 H        -0.382125         0.790618         0.248269
 H         2.759134         1.374551         0.327113
 H         2.157115        -0.968957         2.132481
 H         3.513383        -2.793950         1.102227
 H         3.090329        -2.608587        -1.648796
 H         4.223717         0.001426        -0.578650
 H         4.268333        -0.629145        -2.427459
 H         1.267256         0.525041        -2.508569
