19
Iteration:  4860charge 0 multiplicity 1
 C         0.087490        -0.064971         0.086577
 C         1.585024         0.017917         0.077625
 O         1.909711         1.366972         0.336310
 C         2.059497        -1.074514         1.053384
 C         2.927643        -2.006868         0.460737
 C         3.107803        -1.688254        -1.030881
 C         3.689505        -0.292859        -1.531202
 C         2.168187        -0.501793        -1.305248
 O         1.391011        -0.631774        -2.483303
 H        -0.283035        -0.313128        -0.889340
 H        -0.377137        -0.796229         0.845790
 H        -0.294079         0.951019         0.291794
 H         2.827646         1.484371         0.573676
 H         1.906020        -1.152272         2.210703
 H         3.462995        -2.797464         1.047974
 H         3.100997        -2.558709        -1.654406
 H         4.368934         0.160167        -0.861470
 H         4.050136        -0.307936        -2.538576
 H         2.028084        -0.288286        -3.187853
