19
Iteration:  3841charge 0 multiplicity 1
 C         0.102375        -0.294594        -0.043328
 C         1.624291        -0.056910         0.083196
 O         1.849504         1.393930         0.196323
 C         2.268768        -0.919799         1.158875
 C         2.933555        -1.867435         0.568631
 C         2.986766        -1.834424        -0.918868
 C         3.720412        -0.614983        -1.577475
 C         2.219987        -0.528476        -1.276083
 O         1.413423        -0.273015        -2.434227
 H        -0.215945         0.267707        -1.005190
 H        -0.180851        -1.402176        -0.205365
 H        -0.458708         0.175525         0.759066
 H         0.940088         1.871932         0.282897
 H         1.893127        -0.708567         2.223643
 H         3.509194        -2.666369         0.981788
 H         2.868079        -2.707349        -1.554568
 H         4.380574        -0.191795        -0.766994
 H         3.976721        -0.714442        -2.616333
 H         1.925537         0.355354        -3.009630
