19
Iteration:  3561charge 0 multiplicity 1
 C        -0.000607        -0.271822        -0.001341
 C         1.518423         0.043885         0.063090
 O         1.788991         1.416443         0.308527
 C         2.287692        -0.883467         1.139623
 C         2.993637        -1.886021         0.509096
 C         2.938701        -1.775151        -0.930731
 C         3.785140        -0.709296        -1.548718
 C         2.209007        -0.458710        -1.305574
 O         1.545964        -0.377837        -2.550567
 H        -0.610541        -0.070925        -0.786484
 H        -0.143643        -1.460934         0.160068
 H        -0.543756         0.293690         0.711922
 H         1.123079         1.820846         0.806643
 H         2.223659        -0.806047         2.209435
 H         3.465391        -2.752774         1.137698
 H         2.548929        -2.648913        -1.556146
 H         4.576763        -0.191695        -1.045130
 H         4.087842        -0.776077        -2.650911
 H         2.246280         0.081505        -3.003930
