19
Iteration:  2301charge 0 multiplicity 1
 C        -0.011283         0.007621         0.330846
 C         1.528161        -0.069726         0.064334
 O         1.882616         1.370172         0.234213
 C         2.117214        -1.000684         1.033548
 C         2.891126        -1.948512         0.476144
 C         2.977795        -1.768166        -0.976507
 C         3.723392        -0.407258        -1.481832
 C         2.201208        -0.493211        -1.396789
 O         1.583353        -0.629559        -2.601716
 H        -0.316037         0.375333        -0.602501
 H        -0.436425        -0.989368         0.282716
 H        -0.210203         0.647117         1.212273
 H         2.909089         1.439803         0.230487
 H         2.026737        -0.862123         2.176899
 H         3.399436        -2.734688         1.106266
 H         3.008470        -2.584194        -1.726827
 H         4.389145         0.017642        -0.665774
 H         4.081236        -0.475804        -2.520336
 H         1.669940         0.279206        -2.999663
