19
Iteration:  4712
 C         0.072550        -0.292986         0.152568
 C         1.546930         0.004928         0.019439
 O         1.829846         1.382122         0.243801
 C         2.300129        -0.897653         1.047820
 C         2.942523        -1.987253         0.502005
 C         2.793620        -1.943704        -0.994269
 C         3.640027        -0.466715        -1.454637
 C         2.201452        -0.510858        -1.299748
 O         1.626748        -0.178018        -2.504136
 H        -0.014854        -1.348530         0.154807
 H        -0.537715         0.097104         0.989215
 H        -0.327031         0.090721        -0.730882
 H         2.791245         1.423366        -0.104204
 H         2.184154        -0.686403         2.158520
 H         3.441420        -2.817550         1.050531
 H         2.974645        -2.689626        -1.719883
 H         4.426391        -0.032089        -0.802417
 H         3.890090        -0.469514        -2.549541
 H         1.012291        -0.874813        -2.741368
