19
Iteration:   160charge 0 multiplicity 1
 C        -0.062578        -0.103821         0.005464
 C         1.548163         0.037433        -0.119497
 O         1.893795         1.432812         0.407621
 C         2.218562        -0.894924         0.964120
 C         2.837439        -1.953081         0.542219
 C         2.934956        -1.828561        -0.930444
 C         3.788078        -0.616677        -1.351977
 C         2.245709        -0.487512        -1.370525
 O         1.616421        -0.585747        -2.519145
 H        -0.278412        -0.637880         0.909276
 H        -0.367433         0.909385         0.212618
 H        -0.582024        -0.690282        -0.874108
 H         1.455277         2.101681        -0.157566
 H         2.122586        -0.699595         2.032382
 H         3.542344        -2.513592         1.139304
 H         2.968643        -2.677109        -1.575656
 H         4.358096        -0.084840        -0.510723
 H         4.322439        -0.575447        -2.280287
 H         1.291914         0.283331        -2.766404
