19
Iteration:  2378charge 0 multiplicity 1
 C         0.024340        -0.081777        -0.104129
 C         1.583969        -0.003069         0.106291
 O         2.046037         1.368738         0.277789
 C         2.080631        -1.021470         1.045919
 C         3.002253        -1.868661         0.559715
 C         3.037809        -1.787271        -0.935043
 C         3.651351        -0.432791        -1.516795
 C         2.199054        -0.560226        -1.267762
 O         1.335819        -0.558933        -2.432047
 H        -0.205822         0.873321        -0.466489
 H        -0.227000        -0.855371        -0.906010
 H        -0.497200        -0.295222         0.837543
 H         2.952667         1.353292         0.116994
 H         1.790472        -0.926717         2.189082
 H         3.390070        -2.841486         0.998039
 H         3.125995        -2.666464        -1.499644
 H         4.265324         0.285050        -0.848372
 H         3.940537        -0.346217        -2.574628
 H         1.512756         0.332061        -2.812873
