19
Iteration:   658
 C         0.030685        -0.146573        -0.162361
 C         1.521739         0.094223         0.027051
 O         1.920389         1.463445         0.215285
 C         2.024728        -0.958076         1.060240
 C         2.746806        -1.984026         0.514526
 C         3.050489        -1.810679        -0.906796
 C         3.835260        -0.464058        -1.406368
 C         2.342293        -0.451214        -1.335751
 O         1.465641        -0.527996        -2.370325
 H        -0.216619        -0.577406         0.787933
 H        -0.687009         0.623829        -0.418957
 H        -0.102999        -0.926448        -0.981127
 H         2.631484         1.335394         0.933886
 H         2.082178        -0.662789         2.086503
 H         3.235417        -2.709726         1.114429
 H         3.181003        -2.667426        -1.513003
 H         4.535650         0.040436        -0.687045
 H         4.232706        -0.491491        -2.413979
 H         1.416289        -1.461936        -2.698932
