19
Iteration:  4297
 C         0.041976         0.105384        -0.010651
 C         1.456637        -0.071174         0.027355
 O         2.012669         1.231649         0.410396
 C         1.997567        -1.175253         0.920401
 C         2.986698        -1.891793         0.400405
 C         3.156567        -1.596105        -1.035726
 C         3.775439        -0.249444        -1.382437
 C         2.188484        -0.500798        -1.264555
 O         1.388320        -0.763829        -2.416118
 H        -0.437525        -0.781201         0.254777
 H        -0.314295         0.779769         0.853599
 H        -0.447522         0.436818        -0.839228
 H         2.860570         1.383640        -0.051295
 H         1.623931        -1.066116         1.939767
 H         3.580763        -2.630174         0.886871
 H         3.195487        -2.432907        -1.715020
 H         4.474230         0.228700        -0.766878
 H         3.985520        -0.078730        -2.408770
 H         0.937382         0.019488        -2.696696
