19
Iteration:   271charge 0 multiplicity 1
 C        -0.061616        -0.041866        -0.044820
 C         1.476260         0.001645         0.056565
 O         1.859891         1.465906         0.393213
 C         2.213078        -0.970623         1.090519
 C         2.871468        -1.990085         0.501213
 C         3.009664        -1.822091        -1.012823
 C         3.685958        -0.504182        -1.337573
 C         2.204315        -0.495090        -1.289934
 O         1.732925        -0.609414        -2.616185
 H        -0.590680         0.853886         0.357109
 H        -0.357925        -0.078294        -1.095418
 H        -0.542971        -0.861097         0.516911
 H         2.545892         1.787308        -0.226573
 H         1.974550        -0.816324         2.128343
 H         3.460546        -2.771637         1.006650
 H         3.017444        -2.729998        -1.654273
 H         4.201248        -0.022092        -0.564096
 H         4.054459        -0.484760        -2.394727
 H         1.084796         0.092900        -2.842690
