19
Iteration:   445
 C        -0.065689        -0.160275        -0.101072
 C         1.575719        -0.054592        -0.024987
 O         1.889158         1.383507         0.157942
 C         2.159151        -0.863520         1.087259
 C         2.958343        -1.880075         0.566325
 C         2.967861        -1.817394        -0.925180
 C         3.773386        -0.577242        -1.259008
 C         2.210438        -0.591181        -1.290759
 O         1.542598        -0.424688        -2.516288
 H        -0.421554        -0.766277         0.834660
 H        -0.696571         0.784370         0.065106
 H        -0.502917        -0.634697        -0.979777
 H         2.871246         1.329778         0.009539
 H         1.816566        -0.709083         2.133798
 H         3.455213        -2.763928         1.018138
 H         3.084274        -2.536347        -1.704946
 H         4.316054        -0.038509        -0.429276
 H         4.199256        -0.343753        -2.223893
 H         1.136500         0.477661        -2.408939
