19
Iteration:   899charge 0 multiplicity 1
 C         0.023256        -0.006527         0.040307
 C         1.552794        -0.027277        -0.079279
 O         1.929603         1.400619         0.220299
 C         2.090331        -0.886534         0.983074
 C         2.737053        -1.994615         0.500058
 C         3.072079        -1.795257        -0.894330
 C         3.694530        -0.397465        -1.340198
 C         2.283929        -0.571040        -1.282912
 O         1.622493        -0.652900        -2.543193
 H        -0.389405         0.467777         1.013967
 H        -0.265046         0.740541        -0.845202
 H        -0.686012        -0.857483         0.011694
 H         2.840306         1.469417         0.585151
 H         1.797318        -0.796320         2.042265
 H         3.027216        -2.816087         1.126479
 H         3.307841        -2.537305        -1.639422
 H         4.172858         0.251419        -0.492503
 H         4.312171        -0.625717        -2.147878
 H         0.722947        -0.310660        -2.403138
