19
Iteration:  2211charge 0 multiplicity 1
 C         0.064283        -0.197768        -0.049906
 C         1.628613         0.073562        -0.007572
 O         1.745101         1.511105         0.341408
 C         2.250122        -0.854623         1.117505
 C         2.919106        -1.893094         0.574310
 C         2.903887        -1.839955        -0.902302
 C         3.692989        -0.739929        -1.619843
 C         2.274169        -0.553147        -1.306246
 O         1.525081        -0.423693        -2.496422
 H        -0.540620         0.328425        -0.802858
 H        -0.075723        -1.194359        -0.319729
 H        -0.320465        -0.164515         0.947179
 H         2.518339         1.516028         0.985613
 H         2.142739        -0.953052         2.180412
 H         3.607766        -2.627073         0.938208
 H         2.743346        -2.780019        -1.451749
 H         4.457740        -0.193152        -1.070662
 H         3.690144        -0.982411        -2.681408
 H         1.764924         0.531130        -2.699286
