19
Iteration:  3123charge 0 multiplicity 1
 C        -0.000666        -0.050871        -0.075084
 C         1.474678        -0.089758        -0.007942
 O         1.988431         1.210608         0.540742
 C         2.119834        -0.987381         1.126601
 C         3.029526        -1.745078         0.570864
 C         3.069941        -1.681301        -0.921783
 C         3.764068        -0.510286        -1.590280
 C         2.227007        -0.509607        -1.381593
 O         1.339035        -0.585023        -2.547740
 H        -0.264076         0.559841        -0.862590
 H        -0.511606        -1.085052        -0.207017
 H        -0.319177         0.506190         0.865089
 H         1.705213         1.912901        -0.169022
 H         2.085912        -0.787562         2.187461
 H         3.829522        -2.165256         1.197514
 H         3.051942        -2.604545        -1.379000
 H         4.427765         0.181739        -0.967942
 H         3.783091        -0.648798        -2.676929
 H         1.871565        -0.189624        -3.296552
