19
Iteration:  4716
 C         0.082296        -0.294106         0.169576
 C         1.541314         0.015340         0.024055
 O         1.809212         1.389864         0.239067
 C         2.307752        -0.893509         1.051184
 C         2.920467        -2.020301         0.473389
 C         2.789004        -1.923211        -0.983751
 C         3.651753        -0.465545        -1.462201
 C         2.213912        -0.485572        -1.287468
 O         1.642370        -0.182625        -2.503943
 H        -0.054528        -1.422996         0.239214
 H        -0.533090         0.107065         0.922445
 H        -0.441754        -0.013052        -0.850172
 H         2.753315         1.405705        -0.027896
 H         2.278605        -0.613161         2.095076
 H         3.504313        -2.808596         1.027001
 H         2.904000        -2.739172        -1.770839
 H         4.494890        -0.032580        -0.856781
 H         3.944446        -0.680450        -2.500803
 H         0.959584        -0.885620        -2.638679
