19
Iteration:   836
 C        -0.025228        -0.047782        -0.128701
 C         1.525069        -0.043415         0.027999
 O         1.885788         1.286125         0.334048
 C         2.099803        -0.780181         1.010482
 C         2.933285        -1.821218         0.644886
 C         2.999616        -1.894587        -0.875643
 C         3.755248        -0.633422        -1.419273
 C         2.174163        -0.706511        -1.268994
 O         1.592127        -0.312103        -2.554181
 H        -0.696451        -0.155940         0.732500
 H        -0.157992         0.945725        -0.605573
 H        -0.171525        -0.879166        -0.784805
 H         2.657370         1.572650        -0.279362
 H         2.012604        -0.356990         2.016816
 H         3.539888        -2.226820         1.419802
 H         2.853541        -2.764228        -1.506899
 H         4.508670        -0.210222        -0.627556
 H         4.063173        -0.484877        -2.402852
 H         1.313272        -1.086766        -3.104902
