19
Iteration:  3624
 C         0.077996        -0.274688         0.037856
 C         1.612868         0.003623         0.041512
 O         1.792130         1.418826        -0.028866
 C         2.219228        -0.951315         1.131493
 C         2.818005        -2.037278         0.511487
 C         2.975098        -1.832190        -0.968817
 C         3.723270        -0.422491        -1.353677
 C         2.270152        -0.504551        -1.259649
 O         1.500888        -0.352633        -2.406900
 H        -0.404116         0.559983        -0.512917
 H         0.077005        -1.231686        -0.517117
 H        -0.244786        -0.381417         1.096208
 H         2.703537         1.516201         0.075994
 H         2.221520        -0.878045         2.188476
 H         3.379223        -2.890187         1.080505
 H         3.104607        -2.752793        -1.556025
 H         4.076551         0.185687        -0.563814
 H         4.154080        -0.608491        -2.390059
 H         0.993625         0.464646        -2.402097
