19
Iteration:   439charge 0 multiplicity 1
 C        -0.052107        -0.168153        -0.101062
 C         1.599014        -0.038607         0.015518
 O         1.873281         1.375121         0.170474
 C         2.165865        -0.880119         1.093753
 C         2.915818        -1.864747         0.548825
 C         2.970883        -1.740111        -0.981538
 C         3.763938        -0.571928        -1.254113
 C         2.218121        -0.558180        -1.272523
 O         1.537975        -0.483809        -2.479017
 H        -0.447904        -0.771520         0.656739
 H        -0.438952         0.821024         0.013420
 H        -0.237608        -0.760125        -1.022726
 H         2.759482         1.386179        -0.128572
 H         1.847942        -0.691281         2.086741
 H         3.186573        -2.819491         0.960853
 H         3.070736        -2.636131        -1.639398
 H         4.371760        -0.177045        -0.478988
 H         4.020860        -0.441448        -2.318082
 H         1.422873         0.501648        -2.561818
