19
Iteration:   563charge 0 multiplicity 1
 C         0.025570        -0.075058        -0.125202
 C         1.542261        -0.062625        -0.014016
 O         2.007633         1.340224         0.333473
 C         2.036451        -1.020832         1.073638
 C         2.874426        -1.922175         0.557646
 C         3.087627        -1.728549        -0.854519
 C         3.666778        -0.473415        -1.442118
 C         2.224324        -0.569000        -1.266707
 O         1.562087        -0.404360        -2.524716
 H        -0.356172         0.799051         0.412864
 H        -0.098962         0.054323        -1.201701
 H        -0.325086        -1.035027         0.135536
 H         1.551817         1.894588        -0.267498
 H         1.771617        -0.887317         2.088772
 H         3.572237        -2.538734         1.057359
 H         3.175543        -2.694445        -1.296085
 H         4.332785         0.163466        -0.746767
 H         4.085322        -0.653174        -2.417375
 H         0.810045        -1.042887        -2.627290
