19
Iteration:  4884charge 0 multiplicity 1
 C        -0.087565        -0.077595        -0.026296
 C         1.527157        -0.016575        -0.024350
 O         2.066873         1.338630         0.485700
 C         2.105139        -1.004194         1.003887
 C         3.004676        -1.839231         0.424174
 C         3.085610        -1.701434        -1.010164
 C         3.672883        -0.369322        -1.440051
 C         2.219561        -0.472528        -1.363125
 O         1.364690        -0.695235        -2.422292
 H        -0.510165        -0.289295        -1.043749
 H        -0.437202        -0.941899         0.734208
 H        -0.503987         0.870518         0.318835
 H         3.116404         1.232842         0.571174
 H         1.931587        -1.122244         2.074132
 H         3.434910        -2.721848         0.962124
 H         3.138917        -2.596079        -1.676681
 H         4.221341         0.334227        -0.840340
 H         3.974443        -0.402860        -2.467246
 H         1.511496        -0.079246        -3.191670
