19
Iteration:  3903
 C         0.163260        -0.276982         0.207923
 C         1.597636        -0.026664         0.020536
 O         1.736536         1.387913         0.199413
 C         2.324924        -0.880172         1.048850
 C         2.839168        -1.937571         0.501814
 C         2.897276        -1.846959        -1.015704
 C         3.682343        -0.559731        -1.385170
 C         2.241585        -0.541691        -1.326168
 O         1.603563        -0.327789        -2.597060
 H        -0.473415         0.055046        -0.681562
 H        -0.011539        -1.238314         0.556988
 H        -0.069494         0.394006         1.095484
 H         0.786985         1.778623         0.281669
 H         2.056168        -0.621147         2.105930
 H         3.397394        -2.803460         0.918165
 H         2.965059        -2.757712        -1.599886
 H         4.513799        -0.213858        -0.616588
 H         4.038855        -0.575318        -2.468879
 H         1.519354         0.668642        -2.647144
