19
Iteration:  1907
 C         0.105058        -0.153328        -0.162668
 C         1.614556         0.051290         0.059368
 O         1.941750         1.388407         0.287136
 C         2.151916        -0.958898         1.132219
 C         2.971284        -1.944537         0.551911
 C         2.872129        -1.771699        -0.971155
 C         3.717683        -0.544938        -1.442608
 C         2.174644        -0.446701        -1.286573
 O         1.434493        -0.505730        -2.461045
 H        -0.261167         0.231441        -1.183451
 H        -0.104775        -1.275230        -0.152828
 H        -0.388090         0.286920         0.717486
 H         2.879849         1.412231         0.281643
 H         2.299005        -0.621420         2.112078
 H         3.410840        -2.888833         0.996995
 H         2.786701        -2.693672        -1.584144
 H         4.467226        -0.167796        -0.779566
 H         3.928142        -0.555744        -2.596449
 H         0.787126         0.189031        -2.374443
