19
Iteration:  4587charge 0 multiplicity 1
 C        -0.047961         0.120464        -0.047308
 C         1.488301        -0.105204         0.039591
 O         2.111874         1.273107         0.385020
 C         1.982964        -1.194691         1.026051
 C         3.110432        -1.847209         0.455905
 C         3.148316        -1.690696        -1.017814
 C         3.649675        -0.275555        -1.517284
 C         2.195786        -0.548963        -1.287729
 O         1.294143        -0.633792        -2.420677
 H        -0.471903        -0.910742        -0.030743
 H        -0.391197         0.676456         0.789175
 H        -0.439898         0.537617        -1.032464
 H         2.638250         0.991790         1.227810
 H         1.757635        -1.198159         2.098242
 H         3.837148        -2.396593         1.076639
 H         3.239084        -2.555284        -1.740661
 H         4.138323         0.394939        -0.798392
 H         4.131076        -0.209041        -2.481769
 H         1.844124        -0.255507        -3.135257
