19
Iteration:  1410charge 0 multiplicity 1
 C        -0.025004        -0.014287         0.042329
 C         1.436248        -0.033701         0.023238
 O         2.103407         1.294830         0.186802
 C         2.078551        -1.063049         1.100818
 C         2.921449        -1.923262         0.481093
 C         3.058448        -1.824339        -0.981476
 C         3.637146        -0.436548        -1.343071
 C         2.192267        -0.548288        -1.267110
 O         1.537909        -0.469198        -2.533006
 H        -0.442790         0.567805        -0.781171
 H        -0.282015        -1.092771         0.030276
 H        -0.312395         0.245914         1.055219
 H         1.495896         2.038865         0.070601
 H         1.681389        -1.008209         2.080830
 H         3.692772        -2.341269         1.061089
 H         3.333442        -2.760679        -1.493713
 H         4.188584         0.066011        -0.591320
 H         3.985574        -0.363831        -2.462226
 H         1.928914         0.360304        -2.886549
