19
Iteration:  1739charge 0 multiplicity 1
 C        -0.003942        -0.070491        -0.063772
 C         1.557077         0.004611         0.005644
 O         1.950446         1.356931         0.390846
 C         2.194190        -0.887293         1.071771
 C         2.934252        -1.924211         0.511762
 C         3.017755        -1.843957        -0.978760
 C         3.796790        -0.613487        -1.480017
 C         2.188896        -0.552948        -1.344191
 O         1.434033        -0.462468        -2.512319
 H        -0.500308         0.078208        -1.033060
 H        -0.368827        -0.993509         0.316621
 H        -0.350570         0.847510         0.496250
 H         1.414432         1.677471         1.140806
 H         1.908246        -0.784912         2.126317
 H         3.709361        -2.287724         1.245145
 H         2.905264        -2.819976        -1.511774
 H         4.223994        -0.085427        -0.709462
 H         4.033404        -0.737133        -2.521564
 H         1.772668         0.252961        -3.060835
