19
Iteration:  2933
 C         0.180525        -0.210564        -0.062970
 C         1.600150         0.020954        -0.029997
 O         1.852458         1.454201         0.349584
 C         2.137580        -0.969288         1.089281
 C         2.788925        -1.993450         0.526337
 C         3.032792        -1.687437        -0.960490
 C         3.767075        -0.419523        -1.469832
 C         2.261122        -0.469180        -1.353120
 O         1.413235        -0.652493        -2.395907
 H        -0.504556         0.567097        -0.525276
 H        -0.165359        -1.111367        -0.465390
 H        -0.117480        -0.215485         0.968067
 H         2.493929         1.762641        -0.342155
 H         2.110752        -0.638859         2.129287
 H         3.273086        -2.891901         0.946288
 H         2.958797        -2.522461        -1.679363
 H         4.452238         0.186674        -0.778268
 H         4.049302        -0.619387        -2.490613
 H         1.091652         0.204754        -2.666903
