19
Iteration:  4889
 C        -0.044035        -0.086329        -0.043803
 C         1.542529        -0.025586         0.006782
 O         2.053896         1.277489         0.484294
 C         2.114950        -1.010948         1.021095
 C         2.964444        -1.790708         0.467000
 C         3.101054        -1.728663        -1.037960
 C         3.668672        -0.353278        -1.449500
 C         2.185695        -0.457749        -1.388433
 O         1.343724        -0.698247        -2.437126
 H        -0.524934        -0.183681        -1.023548
 H        -0.466054        -0.781965         0.594737
 H        -0.382546         0.923657         0.298003
 H         2.945059         1.182301         0.584918
 H         1.994454        -0.901773         2.112267
 H         3.506644        -2.581737         0.926180
 H         3.268616        -2.634287        -1.608442
 H         4.431594         0.244935        -0.828833
 H         4.143759        -0.367026        -2.486405
 H         1.430266         0.072922        -3.002651
