19
Iteration:  4691
 C         0.092004        -0.189288         0.067311
 C         1.582012        -0.060339         0.005877
 O         1.908671         1.328730         0.246324
 C         2.217425        -0.958863         1.108273
 C         2.938942        -1.922495         0.462865
 C         3.073375        -1.779576        -1.013657
 C         3.657626        -0.532243        -1.357863
 C         2.099549        -0.580742        -1.307978
 O         1.458279        -0.203863        -2.518360
 H        -0.324055        -1.140983        -0.212411
 H        -0.275945        -0.121125         1.062478
 H        -0.433956         0.562665        -0.476182
 H         2.616995         1.441885        -0.309679
 H         2.043332        -0.750394         2.208366
 H         3.567454        -2.707245         0.952835
 H         2.866326        -2.651361        -1.562143
 H         4.226756        -0.002277        -0.546742
 H         4.189580        -0.561484        -2.357239
 H         0.836411        -0.961660        -2.769251
