19
Iteration:  1255
 C         0.024453        -0.085165         0.080315
 C         1.531591        -0.014329        -0.010726
 O         1.805958         1.387080         0.222279
 C         2.111231        -0.969459         1.047784
 C         2.866797        -1.965322         0.529321
 C         2.934815        -1.755575        -0.931902
 C         3.770553        -0.496670        -1.345596
 C         2.265469        -0.527716        -1.274772
 O         1.657671        -0.540204        -2.586179
 H        -0.441641         0.753847        -0.491145
 H        -0.365351        -1.039870        -0.390731
 H        -0.255228         0.060637         1.125171
 H         2.742494         1.613170        -0.038056
 H         1.760145        -0.755665         2.106502
 H         3.294512        -2.878534         1.069132
 H         2.781249        -2.658392        -1.525804
 H         4.596060        -0.023056        -0.763038
 H         4.007535        -0.455359        -2.434677
 H         1.517707         0.409743        -2.753441
