19
Iteration:   491charge 0 multiplicity 1
 C        -0.069142        -0.099429        -0.009689
 C         1.547447        -0.017707         0.013657
 O         1.813274         1.403389         0.151021
 C         2.176205        -0.909286         1.117238
 C         2.908929        -1.920492         0.617868
 C         3.026781        -1.813581        -0.899833
 C         3.746619        -0.537229        -1.438907
 C         2.230915        -0.642674        -1.322044
 O         1.651974        -0.305764        -2.530294
 H        -0.388405        -0.594180         0.967352
 H        -0.482411         0.969142         0.096326
 H        -0.518143        -0.610104        -0.872740
 H         2.741252         1.252218         0.240080
 H         1.707016        -1.129863         2.017986
 H         3.196109        -2.782435         1.170310
 H         2.932848        -2.831787        -1.336036
 H         4.351008        -0.051092        -0.699630
 H         4.168091        -0.540916        -2.423171
 H         1.155550        -1.131349        -2.820261
