19
Iteration:  4567
 C         0.039829         0.031051        -0.041638
 C         1.568404        -0.107852         0.037877
 O         2.035371         1.221297         0.275460
 C         2.076433        -1.105916         1.049210
 C         3.056482        -1.959863         0.490612
 C         3.159880        -1.631887        -0.931156
 C         3.612377        -0.277885        -1.495501
 C         2.168694        -0.543253        -1.280825
 O         1.290652        -0.501867        -2.411212
 H        -0.573481        -0.807310        -0.244360
 H        -0.377710         0.518687         0.837636
 H        -0.160765         0.740205        -0.819980
 H         2.557059         1.280372         1.041045
 H         1.645181        -1.258639         2.005322
 H         3.506055        -2.882127         0.878054
 H         3.316103        -2.501833        -1.684580
 H         4.122979         0.432722        -0.848749
 H         3.839975        -0.235777        -2.517214
 H         1.834957        -0.842032        -3.196897
