19
Iteration:   476
 C         0.019450        -0.073602         0.036481
 C         1.529397        -0.105898        -0.059916
 O         1.812546         1.290590         0.104812
 C         2.113479        -0.915617         1.082857
 C         2.903681        -1.857960         0.614451
 C         3.087931        -1.879487        -0.856663
 C         3.690691        -0.601272        -1.345976
 C         2.206985        -0.598749        -1.310624
 O         1.651932        -0.258795        -2.570077
 H        -0.341791        -0.677175         0.932601
 H        -0.348883         0.977189         0.089319
 H        -0.586921        -0.406391        -0.821840
 H         2.644564         1.550436         0.517038
 H         1.890980        -0.530467         2.142570
 H         3.434503        -2.648969         1.193443
 H         3.354253        -2.637778        -1.554885
 H         4.323674         0.143199        -0.743545
 H         3.987541        -0.571210        -2.413995
 H         0.709541        -0.505734        -2.616462
