19
Iteration:  1663charge 0 multiplicity 1
 C         0.072389        -0.043325         0.003905
 C         1.577288        -0.035310        -0.061578
 O         1.882857         1.335748         0.149082
 C         2.173670        -0.995739         1.078627
 C         2.849051        -1.986626         0.543430
 C         3.053909        -1.743951        -0.929358
 C         3.821564        -0.519215        -1.261173
 C         2.256217        -0.565498        -1.294731
 O         1.318226        -0.433081        -2.466391
 H        -0.271813         0.944610        -0.401148
 H        -0.296891        -0.877401        -0.543733
 H        -0.276654        -0.273986         1.106275
 H         2.707481         1.597638        -0.375872
 H         1.636662        -0.973935         1.958482
 H         3.383636        -2.722049         1.162040
 H         3.115289        -2.502144        -1.748150
 H         4.340296         0.045942        -0.587954
 H         4.156412        -0.542348        -2.327574
 H         1.745495         0.343405        -2.895643
