19
Iteration:  1114charge 0 multiplicity 1
 C         0.129549        -0.197976        -0.197699
 C         1.596672         0.083626         0.074008
 O         1.833412         1.487544         0.318811
 C         2.095595        -0.980862         1.058470
 C         2.901202        -1.949347         0.507580
 C         3.016190        -1.859392        -0.937080
 C         3.667546        -0.543933        -1.325037
 C         2.231903        -0.462928        -1.288440
 O         1.455531        -0.519310        -2.462808
 H        -0.290624         0.775794        -0.502163
 H         0.034047        -0.906751        -1.032229
 H        -0.264112        -0.373259         0.751992
 H         2.754053         1.430423         0.250851
 H         1.975624        -0.891979         2.111442
 H         3.389555        -2.762673         0.965132
 H         3.048624        -2.760202        -1.566323
 H         4.339494         0.027823        -0.647939
 H         4.050239        -0.444893        -2.422678
 H         1.779680         0.156682        -3.080290
