19
Iteration:  4885
 C        -0.079643        -0.078857        -0.030087
 C         1.529814        -0.018248        -0.020695
 O         2.065212         1.328176         0.486395
 C         2.106707        -1.005821         1.009776
 C         2.997284        -1.827328         0.432160
 C         3.088007        -1.707657        -1.015642
 C         3.669459        -0.366858        -1.438414
 C         2.214623        -0.467470        -1.371152
 O         1.360973        -0.697643        -2.421906
 H        -0.528997        -0.269857        -1.060158
 H        -0.456747        -0.939397         0.733769
 H        -0.485126         0.886208         0.313741
 H         3.104115         1.226683         0.575699
 H         1.955836        -1.091966         2.053575
 H         3.442028        -2.699567         0.950465
 H         3.164843        -2.623403        -1.671366
 H         4.272586         0.330462        -0.837043
 H         4.006648        -0.399020        -2.478879
 H         1.502362        -0.034804        -3.178444
