19
Iteration:   559
 C         0.047222        -0.091540        -0.166155
 C         1.555174        -0.063460         0.026466
 O         1.995494         1.373327         0.368845
 C         2.069844        -0.997830         1.064993
 C         2.827758        -1.930997         0.542779
 C         3.113671        -1.745504        -0.830760
 C         3.678246        -0.485526        -1.412464
 C         2.235313        -0.559477        -1.312447
 O         1.515194        -0.418889        -2.536674
 H        -0.328587         0.692220         0.468466
 H        -0.167076         0.168985        -1.206239
 H        -0.343506        -1.121472         0.183709
 H         1.652639         2.025232        -0.363993
 H         1.855688        -0.828460         2.171243
 H         3.510781        -2.621986         1.105516
 H         3.293881        -2.661654        -1.431327
 H         4.280923         0.092955        -0.717653
 H         4.011656        -0.621759        -2.445057
 H         0.858136        -1.088769        -2.804158
