19
Iteration:   654
 C         0.058219        -0.128896        -0.145072
 C         1.508710         0.080523         0.052118
 O         1.936670         1.445690         0.191521
 C         2.041410        -0.951511         1.051761
 C         2.742735        -1.986488         0.487056
 C         3.023540        -1.790981        -0.897598
 C         3.848039        -0.449197        -1.415705
 C         2.287357        -0.459964        -1.301354
 O         1.494878        -0.531704        -2.403671
 H        -0.340548        -0.573095         0.840674
 H        -0.710175         0.614041        -0.459871
 H        -0.103306        -0.968500        -0.906063
 H         2.530211         1.382724         0.947470
 H         2.123216        -0.761814         2.201296
 H         3.124381        -2.762560         1.222786
 H         3.295802        -2.661663        -1.561716
 H         4.413354         0.148866        -0.686031
 H         4.258939        -0.510325        -2.402044
 H         1.494086        -1.468372        -2.564825
