19
Iteration:  2499
 C         0.086515        -0.228406        -0.198409
 C         1.648672        -0.004321        -0.024741
 O         1.803203         1.446683         0.222610
 C         2.239640        -0.896278         1.138162
 C         2.982290        -1.907789         0.565632
 C         2.955112        -1.893545        -0.879341
 C         3.633311        -0.679379        -1.586121
 C         2.237461        -0.556732        -1.232613
 O         1.384648        -0.267519        -2.324093
 H        -0.361883         0.073954        -1.109120
 H        -0.075456        -1.258328         0.161974
 H        -0.337439         0.288256         0.606250
 H         2.804739         1.630091         0.375753
 H         2.070728        -0.634786         2.133852
 H         3.455587        -2.604115         1.192278
 H         2.826438        -2.818524        -1.505000
 H         4.361883        -0.383655        -0.864002
 H         4.032501        -0.624915        -2.649097
 H         1.924142         0.281013        -2.888323
