19
Iteration:  3031charge 0 multiplicity 1
 C         0.163387        -0.273519         0.193675
 C         1.558641         0.032958         0.013617
 O         1.953706         1.465967         0.031517
 C         2.189084        -0.990033         1.014896
 C         2.784968        -2.008090         0.441699
 C         3.050932        -1.759966        -0.962618
 C         3.701484        -0.418213        -1.360564
 C         2.204267        -0.529157        -1.225877
 O         1.483465        -0.476138        -2.441630
 H        -0.454155         0.129144        -0.691008
 H         0.045868        -1.289312         0.026995
 H        -0.400422        -0.147189         1.078846
 H         1.105461         1.986961         0.201498
 H         2.261448        -0.904625         2.076623
 H         3.161376        -2.769165         1.143319
 H         2.993305        -2.606922        -1.747495
 H         4.268637        -0.033486        -0.446285
 H         3.970440        -0.416224        -2.403042
 H         1.343645         0.378544        -2.845107
