19
Iteration:  1575charge 0 multiplicity 1
 C         0.062652        -0.133162        -0.050843
 C         1.629015        -0.014114        -0.010085
 O         1.910625         1.452232         0.289984
 C         2.135293        -0.952925         0.987693
 C         2.844353        -1.998568         0.518917
 C         3.014977        -1.843418        -1.011485
 C         3.785850        -0.544657        -1.407034
 C         2.300431        -0.513044        -1.286733
 O         1.410549        -0.409264        -2.353296
 H        -0.275191         0.223303        -1.080028
 H        -0.315928        -1.158210         0.038440
 H        -0.447540         0.490137         0.795295
 H         1.156952         2.043111         0.265152
 H         2.137024        -0.770236         2.095301
 H         2.856995        -2.998015         1.042789
 H         3.156466        -2.732314        -1.618885
 H         4.329332         0.086689        -0.632084
 H         4.232731        -0.637117        -2.355488
 H         1.878412        -0.421225        -3.199681
