19
Iteration:  4807charge 0 multiplicity 1
 C         0.026920        -0.251781         0.004686
 C         1.521569        -0.072960         0.020097
 O         1.925609         1.384090         0.225916
 C         2.220984        -0.994153         1.078046
 C         2.998805        -1.849213         0.460552
 C         2.918250        -1.798004        -1.054686
 C         3.687000        -0.557058        -1.372772
 C         2.153381        -0.530416        -1.265496
 O         1.506085        -0.332737        -2.447568
 H        -0.203899        -1.074982        -0.685848
 H        -0.288237        -0.636752         1.107747
 H        -0.493091         0.711268        -0.231454
 H         2.830201         1.426451         0.058908
 H         2.055749        -0.713056         2.175633
 H         3.804137        -2.531549         0.777569
 H         3.003606        -2.719392        -1.592381
 H         4.135281         0.034179        -0.624396
 H         3.979175        -0.417591        -2.384605
 H         1.059332         0.554299        -2.286043
