19
Iteration:  3350
 C        -0.024914        -0.105331         0.249321
 C         1.535953        -0.152424         0.043745
 O         1.855515         1.359338         0.069487
 C         2.232555        -0.985646         1.052849
 C         2.950454        -1.922158         0.436132
 C         3.034666        -1.749144        -1.037907
 C         3.714317        -0.466208        -1.280706
 C         2.227228        -0.567989        -1.328603
 O         1.502665        -0.470079        -2.554345
 H        -0.264714         0.806460        -0.265761
 H        -0.624668        -0.970529         0.041352
 H        -0.129951         0.273463         1.289113
 H         1.186609         1.751531         0.668081
 H         2.134950        -0.810667         2.088685
 H         3.600540        -2.652686         0.947050
 H         3.218381        -2.669082        -1.700984
 H         4.143216         0.110944        -0.474888
 H         4.295357        -0.201798        -2.214625
 H         1.781283         0.320789        -3.035586
