19
Iteration:  4423charge 0 multiplicity 1
 C         0.147288        -0.327459         0.119533
 C         1.590941        -0.054432         0.105760
 O         1.806351         1.417897         0.095332
 C         2.322495        -0.965986         1.130879
 C         2.840732        -2.026499         0.445560
 C         2.968820        -1.799474        -1.038506
 C         3.672025        -0.480696        -1.404866
 C         2.195901        -0.520883        -1.255396
 O         1.437146        -0.243543        -2.472698
 H        -0.036824        -1.420416         0.152643
 H        -0.386654         0.160653         0.760315
 H        -0.299293        -0.158052        -0.907326
 H         2.579562         1.586048         0.558817
 H         2.161403        -1.044177         2.192736
 H         3.203733        -2.886926         0.931618
 H         3.050000        -2.483900        -1.812367
 H         4.157681         0.185220        -0.644603
 H         3.951021        -0.348752        -2.487753
 H         1.971140         0.542655        -2.728155
