19
Iteration:  2724
 C         0.072804        -0.178210         0.080617
 C         1.567858         0.006870         0.023023
 O         1.915599         1.404745         0.022293
 C         2.261248        -0.951751         1.111995
 C         2.911415        -1.959594         0.505524
 C         3.018931        -1.864602        -0.974610
 C         3.585465        -0.496722        -1.336416
 C         2.150231        -0.633048        -1.236864
 O         1.472697        -0.330566        -2.425364
 H        -0.323797         0.648476        -0.430532
 H        -0.098899        -1.073483        -0.634554
 H        -0.402622        -0.359599         1.043690
 H         2.786119         1.456260        -0.368003
 H         1.860616        -0.929771         2.110531
 H         3.589806        -2.725015         0.949308
 H         3.112026        -2.696828        -1.742472
 H         4.298733        -0.047183        -0.542239
 H         3.901329        -0.377570        -2.337478
 H         1.358739         0.654961        -2.462067
