19
Iteration:  4600
 C        -0.018169         0.083626        -0.034035
 C         1.527439        -0.026140         0.015107
 O         2.079918         1.145682         0.494311
 C         2.057504        -1.080735         0.950222
 C         3.001393        -1.791465         0.458700
 C         3.150766        -1.652707        -1.010340
 C         3.674596        -0.321079        -1.462081
 C         2.162766        -0.568446        -1.362325
 O         1.324983        -0.702763        -2.455478
 H        -0.561916        -0.818292         0.055828
 H        -0.346222         0.794877         0.768087
 H        -0.231793         0.591113        -0.952909
 H         2.688032         1.106960         1.216480
 H         1.827380        -0.898691         1.969852
 H         3.747758        -2.459753         0.882375
 H         3.557155        -2.535237        -1.647184
 H         4.176818         0.373225        -0.807039
 H         3.786513        -0.233655        -2.501887
 H         1.313639         0.069027        -3.047539
