19
Iteration:   223charge 0 multiplicity 1
 C        -0.034537        -0.148868        -0.102925
 C         1.489400         0.014262         0.034380
 O         1.970414         1.341900         0.100345
 C         2.062031        -0.969103         1.071803
 C         2.864334        -1.877755         0.572461
 C         3.131883        -1.793231        -0.912244
 C         3.769019        -0.524474        -1.398225
 C         2.264727        -0.597410        -1.258185
 O         1.444994        -0.360581        -2.411161
 H        -0.667041         0.019976         0.769162
 H        -0.456489         0.427854        -0.951559
 H        -0.171441        -1.249727        -0.308340
 H         2.698850         1.388136         0.700651
 H         1.758236        -1.022497         2.140678
 H         3.245197        -2.667070         1.218923
 H         3.160504        -2.714082        -1.461179
 H         4.353572        -0.008031        -0.549526
 H         4.035466        -0.509210        -2.436653
 H         1.946195         0.208292        -3.019848
