19
Iteration:  1376charge 0 multiplicity 1
 C         0.045568         0.036504         0.146051
 C         1.510411        -0.085594        -0.012577
 O         1.945250         1.286422         0.128866
 C         2.207755        -0.940714         1.066170
 C         2.831308        -2.015007         0.483187
 C         3.029358        -1.831200        -0.964259
 C         3.702087        -0.426131        -1.215850
 C         2.216341        -0.547663        -1.325429
 O         1.554893        -0.502686        -2.617447
 H        -0.488476         0.842159        -0.425995
 H        -0.594746        -0.884937        -0.087719
 H        -0.020769         0.270761         1.186493
 H         1.135069         1.827944         0.416847
 H         1.906519        -0.882908         2.070132
 H         3.416452        -2.769274         0.968797
 H         3.381153        -2.590484        -1.668166
 H         4.169891         0.127738        -0.337732
 H         4.353311        -0.278641        -2.126582
 H         1.347642         0.313620        -3.100538
