19
Iteration:  4159charge 0 multiplicity 1
 C         0.077770        -0.492042         0.155259
 C         1.553919         0.020549         0.031855
 O         1.664627         1.469923         0.234116
 C         2.355208        -0.811304         1.036126
 C         2.810189        -2.001436         0.467040
 C         2.804071        -1.824538        -1.004281
 C         3.786196        -0.738669        -1.363527
 C         2.310326        -0.391696        -1.324434
 O         1.559873        -0.199469        -2.528655
 H         0.226410        -1.547146        -0.004734
 H        -0.213671        -0.322708         1.274392
 H        -0.646004        -0.166097        -0.632090
 H         2.620662         1.628547        -0.082668
 H         2.568517        -0.667579         2.127050
 H         3.467436        -2.664363         0.996512
 H         2.690548        -2.566890        -1.770554
 H         4.511706        -0.348180        -0.701616
 H         4.189298        -0.698808        -2.339306
 H         1.721288         0.719253        -2.915518
