19
Iteration:  4984charge 0 multiplicity 1
 C         0.105296        -0.273199         0.110278
 C         1.655912         0.058332         0.078806
 O         1.865192         1.477175         0.262609
 C         2.263320        -0.854648         1.059268
 C         2.847515        -2.003681         0.447712
 C         3.016998        -1.835156        -0.946782
 C         3.686363        -0.429964        -1.339966
 C         2.157257        -0.594802        -1.308703
 O         1.370751        -0.509347        -2.603189
 H        -0.580904         0.564612        -0.297834
 H        -0.036937        -1.209776        -0.523423
 H        -0.259513        -0.408473         1.187859
 H         2.754577         1.729757        -0.203565
 H         2.118834        -0.812338         2.132231
 H         3.327727        -2.838657         0.954330
 H         2.955700        -2.619520        -1.711275
 H         4.202026         0.321270        -0.676019
 H         4.162180        -0.417353        -2.337048
 H         1.894032         0.213694        -3.065245
