19
Iteration:   247charge 0 multiplicity 1
 C         0.053955        -0.069948        -0.070005
 C         1.535777        -0.103176        -0.071298
 O         1.831241         1.323130         0.310122
 C         2.120588        -0.950347         1.029290
 C         2.895268        -1.892875         0.592241
 C         2.978198        -1.783082        -0.919610
 C         3.777506        -0.484865        -1.288679
 C         2.266170        -0.576342        -1.347668
 O         1.498356        -0.469118        -2.567497
 H        -0.220241         0.708918         0.617779
 H        -0.397721         0.208012        -1.006390
 H        -0.465039        -0.990586         0.407922
 H         2.806573         1.566908         0.097542
 H         1.969902        -0.620654         2.032241
 H         3.418033        -2.625284         1.204820
 H         3.089208        -2.685237        -1.530857
 H         4.229544         0.091180        -0.429198
 H         4.219378        -0.615262        -2.273487
 H         1.655039         0.428136        -2.879792
