19
Iteration:  3034
 C         0.170507        -0.264656         0.152296
 C         1.600869         0.035387         0.024820
 O         1.958743         1.475361         0.035214
 C         2.186913        -0.993861         1.004376
 C         2.759229        -2.029344         0.461246
 C         3.056062        -1.731236        -0.981994
 C         3.698551        -0.414789        -1.324096
 C         2.202835        -0.529891        -1.232126
 O         1.463357        -0.506117        -2.434956
 H        -0.445108         0.155063        -0.632875
 H         0.073879        -1.327518         0.094534
 H        -0.383430        -0.268734         1.138908
 H         1.068317         1.990740         0.090381
 H         2.268965        -0.808676         2.090396
 H         3.110100        -2.836227         1.116238
 H         3.030947        -2.488980        -1.824358
 H         4.276388        -0.059920        -0.524923
 H         4.016395        -0.334045        -2.442781
 H         1.253817         0.422661        -2.752981
