19
Iteration:  1323charge 0 multiplicity 1
 C         0.080341        -0.260649        -0.177124
 C         1.605963         0.000920         0.037049
 O         1.945172         1.362479         0.226685
 C         2.127329        -0.877414         1.126469
 C         2.791629        -1.908183         0.560883
 C         2.941690        -1.734835        -0.888339
 C         3.814704        -0.542104        -1.513996
 C         2.251052        -0.549802        -1.222138
 O         1.446536        -0.432035        -2.420323
 H        -0.163915         0.356398        -1.060823
 H        -0.076833        -1.308376        -0.549010
 H        -0.668015         0.007588         0.534614
 H         1.988251         1.514287         1.228260
 H         2.125333        -0.600800         2.143293
 H         3.245737        -2.775444         0.964233
 H         2.795174        -2.560703        -1.582585
 H         4.634108         0.074665        -1.001395
 H         4.027272        -0.741257        -2.582287
 H         1.587462         0.422753        -2.847962
