19
Iteration:  4707charge 0 multiplicity 1
 C         0.061222        -0.286267         0.124073
 C         1.581310        -0.028223         0.042943
 O         1.865855         1.370067         0.243721
 C         2.292794        -0.918278         1.052535
 C         2.948798        -1.924752         0.535261
 C         2.829483        -1.905241        -1.001870
 C         3.642780        -0.495396        -1.454096
 C         2.171984        -0.563852        -1.298231
 O         1.589389        -0.172829        -2.517936
 H        -0.035328        -1.416779         0.018475
 H        -0.402086         0.126392         1.100790
 H        -0.381889         0.318353        -0.770595
 H         2.740411         1.573786        -0.155561
 H         2.097581        -0.815771         2.079028
 H         3.340016        -2.775514         1.057328
 H         3.050877        -2.748335        -1.716991
 H         4.252582        -0.098993        -0.655164
 H         3.830170        -0.165952        -2.466729
 H         0.998685        -0.864636        -2.892423
