19
Iteration:  2107charge 0 multiplicity 1
 C        -0.019401        -0.072780         0.104444
 C         1.538070        -0.089699        -0.047477
 O         1.989598         1.316576         0.074565
 C         2.163849        -0.908497         0.983743
 C         2.824087        -2.008064         0.566957
 C         3.123069        -1.789483        -0.982865
 C         3.714391        -0.450220        -1.299475
 C         2.219321        -0.582331        -1.333128
 O         1.421479        -0.403860        -2.449352
 H        -0.607543         0.657472        -0.431990
 H        -0.265827        -1.161737        -0.075225
 H        -0.173312         0.188008         1.226816
 H         3.013810         1.277605         0.122610
 H         1.858102        -0.702122         1.936792
 H         3.631343        -2.501274         1.000819
 H         3.200571        -2.810591        -1.466059
 H         4.222027         0.139074        -0.605764
 H         4.259057        -0.173100        -2.247950
 H         0.636614         0.102832        -2.165196
