19
Iteration:  2286
 C         0.052137        -0.078346         0.244707
 C         1.556072        -0.005623         0.018053
 O         1.947009         1.302159         0.120412
 C         2.206588        -0.935682         1.098195
 C         2.810182        -1.968453         0.475669
 C         2.986955        -1.721817        -1.017864
 C         3.651030        -0.386761        -1.347073
 C         2.142952        -0.583527        -1.262009
 O         1.573725        -0.549219        -2.594833
 H        -0.639876         0.602892        -0.398079
 H        -0.340243        -1.092331         0.309987
 H        -0.016726         0.296500         1.301647
 H         2.826676         1.362300        -0.364685
 H         1.901905        -0.949768         2.094980
 H         3.259009        -2.827061         0.888252
 H         3.116934        -2.637789        -1.666390
 H         4.159797         0.165236        -0.606034
 H         4.095561        -0.369066        -2.393570
 H         1.547600         0.369593        -2.881211
