19
Iteration:  4983
 C         0.107620        -0.267048         0.117347
 C         1.653560         0.056480         0.077135
 O         1.866373         1.474099         0.264548
 C         2.253569        -0.860890         1.056559
 C         2.852623        -2.007216         0.451750
 C         3.022786        -1.822829        -0.954118
 C         3.685282        -0.432796        -1.333260
 C         2.155363        -0.587669        -1.320866
 O         1.370897        -0.513730        -2.598227
 H        -0.547786         0.558062        -0.305491
 H        -0.030587        -1.221515        -0.518202
 H        -0.258317        -0.386327         1.160256
 H         2.773121         1.715549        -0.227300
 H         2.116984        -0.782497         2.120026
 H         3.325229        -2.833236         0.991874
 H         2.972261        -2.638205        -1.723418
 H         4.173616         0.294919        -0.675590
 H         4.149436        -0.416978        -2.322148
 H         1.864834         0.218958        -3.077227
