19
Iteration:  2729
 C         0.050730        -0.198064         0.111627
 C         1.527108        -0.010693         0.047245
 O         1.937290         1.434941        -0.000526
 C         2.254259        -0.937254         1.060815
 C         2.946851        -1.986426         0.519041
 C         3.011026        -1.860509        -0.944546
 C         3.597491        -0.493532        -1.339342
 C         2.091801        -0.656605        -1.245619
 O         1.515106        -0.308950        -2.429494
 H        -0.424842         0.782136        -0.400680
 H        -0.233883        -1.015392        -0.514307
 H        -0.532576        -0.527853         1.004175
 H         2.921460         1.402699        -0.345562
 H         1.912491        -1.036525         2.133573
 H         3.597784        -2.703765         0.963203
 H         3.159786        -2.592431        -1.656540
 H         4.305086        -0.070536        -0.731556
 H         3.999371        -0.363880        -2.404133
 H         1.416666         0.640148        -2.462638
