19
Iteration:  2192charge 0 multiplicity 1
 C         0.122444        -0.232535         0.006586
 C         1.574459         0.060548         0.067779
 O         1.756971         1.445165         0.464899
 C         2.232377        -0.804437         1.032410
 C         2.996748        -1.811333         0.580427
 C         2.861990        -1.852799        -0.960599
 C         3.771474        -0.798526        -1.525417
 C         2.200295        -0.468733        -1.387117
 O         1.481062        -0.443773        -2.631007
 H        -0.291533         0.373931        -0.784111
 H        -0.219297        -1.254507        -0.107579
 H        -0.352340         0.066604         1.002984
 H         2.493312         1.566740         1.048104
 H         2.131079        -0.494065         2.033235
 H         3.382902        -2.501738         1.279277
 H         2.567132        -2.776753        -1.597553
 H         4.444511        -0.411669        -0.774479
 H         4.115130        -0.950427        -2.634430
 H         1.910399         0.070812        -3.360413
