19
Iteration:  1330charge 0 multiplicity 1
 C         0.006736        -0.255533        -0.131186
 C         1.631015         0.056795         0.025795
 O         1.969295         1.370988         0.201301
 C         2.180343        -0.906713         1.121671
 C         2.760402        -1.924100         0.525937
 C         2.965435        -1.739180        -0.938024
 C         3.766237        -0.535052        -1.456563
 C         2.308723        -0.480817        -1.242889
 O         1.468386        -0.483883        -2.407748
 H        -0.397687         0.225996        -1.065026
 H        -0.153673        -1.309406        -0.575911
 H        -0.637291         0.007844         0.730617
 H         1.863632         1.541801         1.129717
 H         1.812170        -0.770764         2.209157
 H         3.100309        -2.813226         1.193054
 H         2.941220        -2.573201        -1.630006
 H         4.695215        -0.044484        -1.000766
 H         3.897810        -0.635648        -2.506315
 H         1.569439         0.405901        -2.819599
