19
Iteration:  4996
 C         0.074929        -0.309920         0.075737
 C         1.600269         0.041703         0.028247
 O         1.810369         1.482910         0.226424
 C         2.418619        -0.878072         1.128628
 C         2.819461        -1.949821         0.524580
 C         2.891413        -1.821493        -0.975090
 C         3.670808        -0.442025        -1.487732
 C         2.228239        -0.580543        -1.245633
 O         1.449674        -0.441281        -2.549346
 H        -0.613045         0.586268        -0.210011
 H        -0.170255        -1.158048        -0.603462
 H        -0.133673        -0.782619         1.123962
 H         2.668806         1.713285         0.072265
 H         2.168607        -0.865718         2.195407
 H         3.140566        -2.859024         1.002783
 H         2.985248        -2.674499        -1.599205
 H         4.324198        -0.082512        -0.615416
 H         4.088775        -0.544155        -2.511634
 H         2.040587         0.102798        -3.056818
