19
Iteration:   444
 C        -0.064546        -0.159896        -0.102645
 C         1.585886        -0.054875        -0.017476
 O         1.883706         1.383502         0.161007
 C         2.159233        -0.862466         1.086835
 C         2.954454        -1.875093         0.562393
 C         2.967157        -1.802723        -0.934657
 C         3.770108        -0.581474        -1.253761
 C         2.210743        -0.586281        -1.289070
 O         1.541537        -0.434840        -2.510828
 H        -0.435185        -0.766221         0.814505
 H        -0.670167         0.788601         0.069796
 H        -0.470754        -0.671261        -1.002253
 H         2.893446         1.320369        -0.024911
 H         1.801936        -0.699705         2.154815
 H         3.417131        -2.804850         1.004594
 H         3.088029        -2.541600        -1.708970
 H         4.330790        -0.054488        -0.427690
 H         4.173308        -0.345444        -2.269553
 H         1.187327         0.479184        -2.419816
