19
Iteration:  1120
 C         0.097097        -0.171415        -0.183370
 C         1.588985         0.056793         0.053254
 O         1.830386         1.493393         0.391202
 C         2.145048        -0.974471         1.026290
 C         2.885153        -1.901938         0.507093
 C         3.042137        -1.842064        -0.905826
 C         3.716239        -0.579865        -1.361987
 C         2.250347        -0.477238        -1.364310
 O         1.440690        -0.523840        -2.486063
 H        -0.419759         0.710556        -0.592885
 H        -0.118574        -0.858667        -0.995101
 H        -0.359507        -0.513754         0.835824
 H         2.852790         1.565968         0.562537
 H         1.911024        -0.988479         2.116892
 H         3.345631        -2.723134         1.128018
 H         2.762072        -2.769347        -1.424214
 H         4.126276         0.143628        -0.641743
 H         4.114311        -0.578512        -2.312072
 H         1.856971        -0.003870        -3.191638
