19
Iteration:  4679
 C         0.003730        -0.105602         0.073892
 C         1.539434        -0.068174         0.020957
 O         1.922361         1.295852         0.245084
 C         2.175091        -1.014904         1.014066
 C         2.959136        -1.988621         0.499506
 C         3.012011        -1.804563        -0.960551
 C         3.739326        -0.441921        -1.381265
 C         2.238312        -0.503226        -1.343205
 O         1.386263        -0.294841        -2.473277
 H        -0.257508        -0.956855        -0.479929
 H        -0.306202        -0.121611         1.130659
 H        -0.315065         0.733473        -0.419986
 H         2.707079         1.555084        -0.372260
 H         2.165561        -0.795813         2.098551
 H         3.612620        -2.638245         1.058578
 H         3.345076        -2.502532        -1.664395
 H         4.350802         0.120946        -0.683456
 H         4.183447        -0.537900        -2.401670
 H         0.680143        -0.932833        -2.478349
