19
Iteration:  2717charge 0 multiplicity 1
 C         0.097361        -0.172870         0.024188
 C         1.636537        -0.032944         0.036818
 O         1.882707         1.370065         0.056262
 C         2.234584        -0.950192         1.123871
 C         2.906416        -1.952571         0.500034
 C         2.987457        -1.836486        -1.016340
 C         3.659863        -0.497634        -1.334885
 C         2.191668        -0.570455        -1.242736
 O         1.416340        -0.368002        -2.431935
 H        -0.467763         0.724276        -0.497925
 H        -0.125737        -1.117144        -0.542130
 H        -0.202524        -0.141983         1.074654
 H         2.717658         1.505169        -0.318908
 H         2.039874        -0.760680         2.230143
 H         3.347059        -2.764856         1.092816
 H         3.024927        -2.714758        -1.582990
 H         4.144583        -0.035122        -0.485276
 H         3.955939        -0.373410        -2.390132
 H         1.325753         0.611987        -2.448048
