19
Iteration:  2371
 C         0.052833        -0.114276        -0.172600
 C         1.599687        -0.011028         0.112875
 O         2.054633         1.360302         0.312927
 C         2.141430        -1.015061         1.086072
 C         3.007851        -1.891195         0.523525
 C         2.981580        -1.754072        -0.869386
 C         3.648780        -0.407674        -1.532225
 C         2.163366        -0.549655        -1.305456
 O         1.338503        -0.552913        -2.386450
 H        -0.184532         0.857540        -0.737095
 H        -0.174667        -0.849395        -0.962999
 H        -0.677468        -0.144505         0.619179
 H         3.019981         1.337293         0.201697
 H         1.734494        -1.052116         2.040227
 H         3.462655        -2.631030         1.099991
 H         3.068786        -2.646312        -1.514000
 H         4.223531         0.204313        -0.931068
 H         3.873365        -0.560498        -2.613133
 H         1.330488         0.288700        -2.909800
