19
Iteration:  3477
 C        -0.025717        -0.024069         0.181911
 C         1.531372        -0.007093         0.031653
 O         1.984003         1.291687         0.210460
 C         2.051897        -1.022618         1.001157
 C         2.959424        -1.941209         0.514977
 C         3.051156        -1.668006        -0.957330
 C         3.622644        -0.274165        -1.413147
 C         2.192178        -0.569976        -1.305306
 O         1.540627        -0.678901        -2.521100
 H        -0.440358         0.992732        -0.118020
 H        -0.221170        -0.678407        -0.631318
 H        -0.346148        -0.607907         1.014283
 H         2.962781         1.334058        -0.146637
 H         1.871105        -0.810931         2.023568
 H         3.679121        -2.614587         1.058649
 H         3.324065        -2.604177        -1.550614
 H         4.031316         0.257392        -0.630101
 H         3.935439        -0.342858        -2.473814
 H         1.326273         0.157561        -3.004760
