19
Iteration:  3426
 C        -0.011195        -0.041650        -0.123238
 C         1.499429        -0.033622        -0.009733
 O         2.024674         1.327560         0.420324
 C         2.126614        -1.025990         0.999096
 C         3.041819        -1.843563         0.532642
 C         3.093995        -1.692381        -0.997505
 C         3.658129        -0.363223        -1.475442
 C         2.215757        -0.544432        -1.313146
 O         1.374312        -0.706471        -2.446969
 H        -0.186993         0.883694        -0.822674
 H        -0.526665        -0.917639        -0.430388
 H        -0.304033         0.198276         0.961107
 H         1.952361         1.270078         1.377271
 H         1.953220        -0.826933         2.069474
 H         3.733992        -2.423915         1.105584
 H         3.074681        -2.610794        -1.696093
 H         4.204934         0.266108        -0.750211
 H         4.076861        -0.547703        -2.555795
 H         1.259590         0.109427        -2.967128
