19
Iteration:  4709charge 0 multiplicity 1
 C         0.066471        -0.291974         0.131992
 C         1.565307        -0.013325         0.030891
 O         1.856625         1.375806         0.242303
 C         2.296385        -0.910003         1.050677
 C         2.949889        -1.951667         0.527451
 C         2.811170        -1.928627        -1.000269
 C         3.643713        -0.480147        -1.452920
 C         2.184822        -0.541283        -1.300846
 O         1.607460        -0.172937        -2.510335
 H        -0.011816        -1.380128         0.074341
 H        -0.497218         0.138084         1.104266
 H        -0.335600         0.225246        -0.737708
 H         2.684783         1.496066        -0.105946
 H         2.129760        -0.769893         2.099957
 H         3.357595        -2.761082         1.031766
 H         3.026117        -2.707138        -1.708532
 H         4.295927        -0.083656        -0.748877
 H         3.841993        -0.277327        -2.497132
 H         0.985597        -0.896384        -2.849588
