19
Iteration:  1425
 C         0.030056        -0.105063        -0.051453
 C         1.609247        -0.050958        -0.007266
 O         2.078725         1.292421         0.301546
 C         2.017478        -1.025903         1.037403
 C         2.955481        -1.848006         0.562399
 C         3.024901        -1.734001        -0.914931
 C         3.734309        -0.520504        -1.405487
 C         2.195541        -0.528726        -1.334224
 O         1.412102        -0.454746        -2.489122
 H        -0.286803         0.477151        -0.926073
 H        -0.416715        -1.079013        -0.134671
 H        -0.415887         0.362716         0.894010
 H         1.336064         1.846861         0.168255
 H         1.870369        -0.931496         2.167330
 H         3.342147        -2.774856         1.092138
 H         2.925488        -2.566671        -1.605593
 H         4.217289         0.118444        -0.639805
 H         4.246942        -0.531900        -2.306836
 H         1.646846         0.238522        -3.125353
