19
Iteration:  4250charge 0 multiplicity 1
 C         0.035681        -0.094505         0.113260
 C         1.555428        -0.055724        -0.001393
 O         1.931869         1.283967         0.402502
 C         2.161817        -1.009497         1.004138
 C         2.915350        -1.929206         0.494391
 C         3.081914        -1.717695        -1.007492
 C         3.635231        -0.407997        -1.368968
 C         2.174438        -0.555775        -1.333564
 O         1.449593        -0.513071        -2.619925
 H        -0.565474        -0.858631         0.725105
 H        -0.385517         0.842712         0.456809
 H        -0.484155        -0.216687        -0.912674
 H         2.929991         1.515411         0.301832
 H         2.109454        -0.763990         2.028151
 H         3.416928        -2.688522         1.122383
 H         3.333109        -2.449836        -1.750288
 H         4.231553         0.264248        -0.676045
 H         4.009135        -0.301923        -2.417743
 H         1.691950         0.367416        -2.986335
