19
Iteration:  4431
 C         0.089328        -0.362121         0.092502
 C         1.589441        -0.057694         0.084428
 O         1.810868         1.376962         0.084080
 C         2.314285        -0.919055         1.088073
 C         2.868657        -2.000514         0.395626
 C         2.967329        -1.746025        -1.020737
 C         3.679171        -0.540703        -1.357385
 C         2.179884        -0.487901        -1.285070
 O         1.480440        -0.222825        -2.384266
 H         0.045856        -1.451064         0.330182
 H        -0.546922         0.204265         0.834913
 H        -0.214356        -0.129925        -0.930659
 H         2.717103         1.326752         0.332505
 H         2.214727        -0.949320         2.128599
 H         3.239573        -2.883904         0.845535
 H         2.944569        -2.594777        -1.668719
 H         4.366741         0.031055        -0.652395
 H         3.799548        -0.491004        -2.439555
 H         1.623103         0.659349        -2.732136
