19
Iteration:     1charge 0 multiplicity 1
 C         0.028400        -0.091108        -0.038720
 C         1.559602        -0.037932         0.011193
 O         1.987869         1.314869         0.214559
 C         2.141480        -0.983401         1.055301
 C         2.933691        -1.915237         0.522684
 C         3.057239        -1.751620        -0.953900
 C         3.688384        -0.434268        -1.407999
 C         2.203869        -0.545405        -1.297477
 O         1.491613        -0.436734        -2.490657
 H        -0.393106         0.218547         0.924348
 H        -0.345395         0.581380        -0.814704
 H        -0.332129        -1.106956        -0.236154
 H         1.608192         1.621342         1.045275
 H         1.929772        -0.858011         2.112473
 H         3.466295        -2.679356         1.078862
 H         3.121963        -2.608251        -1.615250
 H         4.226328         0.161854        -0.681026
 H         4.069541        -0.407693        -2.423004
 H         0.750373        -1.051079        -2.457572
