19
Iteration:  3988
 C        -0.036976        -0.074105        -0.138691
 C         1.527235        -0.070382         0.102123
 O         2.080609         1.320141         0.301816
 C         2.134854        -1.008423         1.131651
 C         2.963906        -1.826425         0.501144
 C         3.133380        -1.671366        -0.989521
 C         3.673275        -0.376619        -1.498967
 C         2.194609        -0.587237        -1.308436
 O         1.361827        -0.666655        -2.454990
 H        -0.349042         0.994640        -0.257202
 H        -0.311428        -0.476437        -1.116383
 H        -0.604533        -0.585982         0.722589
 H         2.387660         1.431307         1.190512
 H         1.823982        -0.948467         2.163461
 H         3.528630        -2.615060         0.999826
 H         3.253909        -2.493282        -1.650568
 H         4.072682         0.505716        -0.871476
 H         4.077217        -0.352600        -2.508988
 H         1.077507         0.257040        -2.596086
