19
Iteration:  2641charge 0 multiplicity 1
 C        -0.012770        -0.032862        -0.034691
 C         1.509510        -0.002293        -0.012129
 O         1.916216         1.279295         0.414244
 C         2.193081        -0.956645         1.117982
 C         3.011111        -1.817327         0.547355
 C         3.001864        -1.716214        -0.925500
 C         3.682051        -0.589212        -1.489354
 C         2.205209        -0.481657        -1.350728
 O         1.422129        -0.573021        -2.577906
 H        -0.370167         0.403384        -1.040720
 H        -0.486616        -1.037623         0.154368
 H        -0.376405         0.695226         0.680215
 H         2.921556         1.154079         0.657203
 H         2.311997        -0.739939         2.230170
 H         3.563929        -2.688595         1.004438
 H         3.062867        -2.645221        -1.513312
 H         4.378920         0.111256        -0.915758
 H         3.903478        -0.740831        -2.500350
 H         1.701968         0.148582        -3.153151
