19
Iteration:  2892
 C        -0.013534        -0.031558         0.159201
 C         1.523116        -0.087133         0.000205
 O         1.927013         1.343804         0.185489
 C         2.130980        -1.036798         1.039679
 C         2.926597        -1.932009         0.457249
 C         3.036036        -1.701376        -0.958692
 C         3.727944        -0.316562        -1.307869
 C         2.149758        -0.565404        -1.268759
 O         1.495511        -0.645182        -2.595607
 H        -0.486616         0.712553        -0.587885
 H        -0.420719        -0.996353         0.170670
 H        -0.084992         0.226334         1.252866
 H         2.786411         1.397490        -0.352080
 H         2.216513        -0.760977         2.063902
 H         3.629183        -2.657450         0.900446
 H         3.206309        -2.542718        -1.698721
 H         4.175738         0.179989        -0.392313
 H         4.235631        -0.196996        -2.214449
 H         1.318644         0.309239        -2.821738
