19
Iteration:  3520
 C         0.072665        -0.179867        -0.118939
 C         1.575639         0.033614        -0.021749
 O         1.883796         1.345042         0.341313
 C         2.232282        -0.879987         1.046991
 C         2.911502        -1.949568         0.515911
 C         3.032484        -1.765237        -0.937525
 C         3.771167        -0.532949        -1.405313
 C         2.256434        -0.546770        -1.301846
 O         1.348678        -0.497078        -2.411811
 H        -0.378299         0.484302        -0.906488
 H        -0.122733        -1.300326        -0.366488
 H        -0.327012        -0.191111         0.896968
 H         1.615427         1.949659        -0.429437
 H         2.273764        -0.636390         2.108444
 H         3.457389        -2.694906         1.162944
 H         3.066256        -2.670611        -1.664424
 H         4.213208         0.146543        -0.751634
 H         4.232466        -0.449143        -2.423242
 H         1.138207         0.448989        -2.603867
