19
Iteration:  3052
 C         0.130666        -0.277250         0.060189
 C         1.658507         0.015258        -0.034278
 O         1.954949         1.433984         0.135019
 C         2.307786        -0.924501         1.118357
 C         2.772861        -1.999856         0.440912
 C         2.961479        -1.769862        -0.986066
 C         3.773837        -0.354936        -1.302505
 C         2.280844        -0.503332        -1.324727
 O         1.360657        -0.565684        -2.408442
 H        -0.457876         0.495433        -0.590567
 H        -0.181497        -1.235873        -0.346252
 H        -0.164722        -0.000574         1.050709
 H         1.114553         1.890602        -0.196713
 H         1.834196        -0.923594         2.078244
 H         3.007039        -3.006574         0.823138
 H         3.080820        -2.676498        -1.668272
 H         3.979309         0.272249        -0.370042
 H         4.337547        -0.410833        -2.208688
 H         0.896864         0.285003        -2.643560
