19
Iteration:  1928
 C        -0.014702        -0.102873         0.051636
 C         1.601018         0.023113         0.096379
 O         1.911344         1.447975         0.337823
 C         2.201729        -0.874735         1.046903
 C         2.821189        -1.977018         0.473503
 C         3.011179        -1.842807        -0.993700
 C         3.695912        -0.536334        -1.484957
 C         2.228861        -0.552676        -1.300318
 O         1.539831        -0.562914        -2.501633
 H        -0.433415         0.468338        -0.819853
 H        -0.254604        -1.217482         0.021672
 H        -0.343928         0.380320         0.974525
 H         2.724004         1.712434        -0.225958
 H         1.849428        -0.917392         2.029477
 H         3.344332        -2.720431         1.127640
 H         2.929730        -2.628251        -1.766272
 H         4.183386         0.138333        -0.827282
 H         3.995856        -0.589173        -2.596563
 H         1.360434         0.378694        -2.747030
