19
Iteration:  4497
 C         0.069492        -0.217338         0.071734
 C         1.576475        -0.043800         0.041775
 O         1.769365         1.385508         0.390342
 C         2.280985        -0.968652         1.090182
 C         2.899076        -1.947948         0.506335
 C         2.957778        -1.797570        -1.036930
 C         3.741375        -0.528421        -1.570092
 C         2.187420        -0.506948        -1.284432
 O         1.575265        -0.304898        -2.520722
 H        -0.293868        -1.152730        -0.509987
 H        -0.408578        -0.180832         1.087189
 H        -0.408185         0.647309        -0.530010
 H         2.671567         1.726141         0.185230
 H         2.114574        -0.626239         2.127839
 H         3.537946        -2.699264         0.939179
 H         2.683956        -2.653836        -1.570440
 H         4.231848         0.192161        -0.865945
 H         3.940713        -0.480200        -2.676857
 H         0.981540        -1.115330        -2.701938
