19
Iteration:   852charge 0 multiplicity 1
 C        -0.002167        -0.027145        -0.242873
 C         1.505720        -0.024755        -0.062700
 O         1.904885         1.346653         0.299623
 C         2.107200        -0.905524         1.104636
 C         2.896485        -1.850268         0.647380
 C         3.022273        -1.839858        -0.849318
 C         3.734864        -0.625521        -1.406101
 C         2.261921        -0.542675        -1.324116
 O         1.555336        -0.385126        -2.449310
 H        -0.386063        -0.416860         0.722446
 H        -0.460824         0.954190        -0.408310
 H        -0.559950        -0.750301        -0.932988
 H         2.803197         1.598975        -0.133522
 H         1.972812        -0.671854         2.163976
 H         3.533655        -2.632014         1.119354
 H         3.038858        -2.820622        -1.376829
 H         4.419443        -0.030124        -0.860867
 H         4.028117        -0.779235        -2.519365
 H         1.047500        -1.227559        -2.559139
