19
Iteration:  1454
 C         0.115196        -0.118755        -0.246546
 C         1.630878         0.066548         0.009766
 O         1.939984         1.390769         0.532110
 C         2.179468        -0.921308         1.072445
 C         2.759156        -1.948745         0.474548
 C         3.093163        -1.812408        -0.919244
 C         3.693364        -0.575303        -1.508508
 C         2.261752        -0.496521        -1.359817
 O         1.400109        -0.535846        -2.378021
 H        -0.032068         0.588335        -1.065983
 H        -0.244913        -1.104343        -0.493156
 H        -0.404089         0.062711         0.687113
 H         1.204326         1.948762         0.244676
 H         2.330366        -0.758087         2.160807
 H         3.198921        -2.724008         1.106727
 H         3.060210        -2.659180        -1.618087
 H         4.251631         0.088644        -0.863936
 H         4.140751        -0.729751        -2.541738
 H         1.375614         0.093421        -3.121330
