19
Iteration:  4084charge 0 multiplicity 1
 C        -0.009090        -0.071294        -0.083754
 C         1.563457        -0.035537         0.023931
 O         1.972469         1.257572         0.313518
 C         2.072709        -1.005545         1.002430
 C         2.989268        -1.867076         0.481155
 C         3.130145        -1.725267        -1.037895
 C         3.694175        -0.385417        -1.387069
 C         2.207323        -0.559286        -1.252217
 O         1.380926        -0.547632        -2.372644
 H        -0.284154        -0.347472        -1.081731
 H        -0.519637        -0.914608         0.483892
 H        -0.445911         0.904602         0.227526
 H         2.851588         1.374174         0.063130
 H         1.707366        -0.934177         2.014064
 H         3.577507        -2.576446         0.931340
 H         3.332793        -2.569162        -1.613118
 H         4.406017         0.134222        -0.792070
 H         3.951583        -0.141384        -2.362682
 H         1.105191         0.306439        -2.659256
