19
Iteration:   670charge 0 multiplicity 1
 C         0.000491        -0.177667        -0.178524
 C         1.636533         0.038384        -0.114061
 O         1.872749         1.458918         0.322391
 C         2.046294        -0.895655         1.037859
 C         2.820687        -1.913628         0.579083
 C         3.090806        -1.758596        -0.927197
 C         3.829877        -0.559654        -1.383952
 C         2.329132        -0.538863        -1.271899
 O         1.403699        -0.486575        -2.395297
 H        -0.461139        -0.598240         0.696235
 H        -0.354628         0.840712        -0.317110
 H        -0.239560        -0.847038        -0.996926
 H         2.743555         1.562198         0.615662
 H         1.651508        -0.785690         2.012116
 H         3.269971        -2.721014         1.122806
 H         2.891338        -2.555855        -1.615716
 H         4.444345        -0.035685        -0.644607
 H         4.226411        -0.643216        -2.439055
 H         1.470816        -1.283188        -2.940780
