19
Iteration:  2756
 C        -0.037263        -0.151198         0.234894
 C         1.530021        -0.053808        -0.030541
 O         1.857764         1.283399         0.038559
 C         2.183148        -0.887082         1.151177
 C         2.940711        -1.876940         0.519687
 C         2.978159        -1.856340        -1.003034
 C         3.719444        -0.578418        -1.376938
 C         2.242200        -0.540017        -1.328838
 O         1.525321        -0.319516        -2.518352
 H        -0.486028         0.771168         0.182133
 H        -0.640789        -0.861082        -0.419801
 H        -0.288865        -0.589973         1.193578
 H         2.873859         1.361871         0.144714
 H         2.125129        -0.684682         2.223092
 H         3.703153        -2.605293         0.922559
 H         2.876694        -2.752059        -1.718896
 H         4.449548        -0.152753        -0.578221
 H         4.123473        -0.387225        -2.327933
 H         1.566003         0.613169        -2.735446
