19
Iteration:   303
 C        -0.007040        -0.095798         0.011113
 C         1.551069         0.039946        -0.054821
 O         1.868816         1.339949         0.280928
 C         2.057413        -0.976591         1.031429
 C         2.816310        -1.982697         0.531853
 C         3.071554        -1.699624        -0.936139
 C         3.799506        -0.510455        -1.336747
 C         2.309744        -0.470103        -1.303446
 O         1.553265        -0.555849        -2.529882
 H        -0.483315         0.867775         0.343023
 H        -0.393365        -0.362122        -0.973991
 H        -0.139780        -1.010313         0.664300
 H         2.806440         1.476736         0.115765
 H         1.583344        -0.817373         1.998375
 H         3.281752        -2.733625         1.166479
 H         2.968708        -2.557671        -1.642699
 H         4.329514        -0.029993        -0.558078
 H         4.214375        -0.434964        -2.389986
 H         1.013400         0.207554        -2.842347
