19
Iteration:  1852
 C        -0.012781        -0.079064         0.153283
 C         1.555524        -0.024629         0.040793
 O         1.827593         1.422929         0.179778
 C         2.222106        -0.966573         1.068888
 C         2.895081        -1.947159         0.549578
 C         3.030092        -1.821605        -0.941916
 C         3.678596        -0.559505        -1.478951
 C         2.182386        -0.509148        -1.350317
 O         1.554120        -0.448304        -2.517322
 H        -0.311562         0.987379         0.087369
 H        -0.476639        -0.851380        -0.579744
 H        -0.278273        -0.255780         1.188246
 H         2.740123         1.378501         0.370746
 H         1.791640        -0.972361         2.070384
 H         3.612682        -2.676523         0.968233
 H         2.771930        -2.718516        -1.542738
 H         4.364259        -0.049090        -0.752572
 H         4.065737        -0.699310        -2.499192
 H         2.108588        -0.030698        -3.192842
