19
Iteration:  1487
 C         0.008262        -0.102499        -0.026363
 C         1.562726         0.049278        -0.006004
 O         1.897895         1.354657         0.415100
 C         2.198856        -0.977054         1.116613
 C         2.877814        -1.940723         0.487056
 C         2.906845        -1.778040        -0.957805
 C         3.749400        -0.608108        -1.484217
 C         2.276757        -0.424481        -1.360979
 O         1.555454        -0.543924        -2.505832
 H        -0.489354         0.813311        -0.425384
 H        -0.264285        -0.945603        -0.612583
 H        -0.198369         0.071055         1.036173
 H         1.675350         1.967674        -0.250037
 H         1.964546        -0.979473         2.244101
 H         3.586320        -2.484449         1.146891
 H         2.615495        -2.685461        -1.493390
 H         4.386206        -0.246295        -0.633230
 H         4.062477        -0.582875        -2.527594
 H         1.559627         0.283780        -3.030993
