19
Iteration:  1689
 C         0.045337        -0.095781         0.102067
 C         1.562366        -0.014192         0.016325
 O         1.977895         1.460303         0.104896
 C         2.131336        -1.009514         1.057756
 C         2.780098        -1.989810         0.468415
 C         2.965390        -1.810824        -0.974057
 C         3.714619        -0.343703        -1.355530
 C         2.239585        -0.613199        -1.268171
 O         1.543988        -0.546083        -2.505398
 H        -0.435944         0.424422        -0.728342
 H        -0.073280        -1.228261        -0.128056
 H        -0.441883         0.166437         1.035105
 H         2.829027         1.537776         0.684767
 H         1.911543        -0.743439         2.158738
 H         3.011038        -2.937187         0.962344
 H         3.155262        -2.670716        -1.633087
 H         4.342213         0.079585        -0.455504
 H         3.928290        -0.322589        -2.419248
 H         1.275101         0.399709        -2.424355
