19
Iteration:  2273charge 0 multiplicity 1
 C         0.062059        -0.127655         0.217891
 C         1.559965        -0.024155        -0.015189
 O         2.001733         1.413218         0.061034
 C         2.201933        -0.982350         1.053367
 C         2.861362        -1.984764         0.479762
 C         3.031182        -1.801316        -0.943295
 C         3.644584        -0.427563        -1.239590
 C         2.134694        -0.616454        -1.346651
 O         1.470941        -0.464507        -2.536831
 H        -0.574222         0.578192        -0.450053
 H        -0.163639        -1.231639        -0.124006
 H        -0.275101         0.065665         1.259628
 H         2.692069         1.564540        -0.616906
 H         2.182241        -0.730805         2.161204
 H         3.131029        -2.892779         1.060087
 H         3.128109        -2.560645        -1.665183
 H         4.172015        -0.015025        -0.369274
 H         3.987012        -0.084924        -2.185046
 H         1.323196         0.505152        -2.723402
