19
Iteration:  2910
 C        -0.000924        -0.137840         0.171085
 C         1.581883         0.073389         0.040727
 O         1.926675         1.423352         0.272636
 C         2.190537        -0.918978         1.006853
 C         2.838581        -1.943176         0.470475
 C         3.150171        -1.772618        -1.058972
 C         3.722700        -0.402015        -1.304945
 C         2.223647        -0.538280        -1.392024
 O         1.443955        -0.688606        -2.499598
 H        -0.473467         0.565985        -0.524144
 H        -0.337470        -1.087877        -0.313115
 H        -0.531553        -0.024530         1.075726
 H         2.577962         1.751070        -0.434079
 H         1.662757        -1.179072         1.962900
 H         3.015742        -2.831549         1.067865
 H         3.366635        -2.534132        -1.733318
 H         4.105322         0.128890        -0.430898
 H         4.252546        -0.287381        -2.321067
 H         1.071917         0.223026        -2.698426
