19
Iteration:  1465charge 0 multiplicity 1
 C         0.105134        -0.097559        -0.205157
 C         1.681490         0.045213         0.106057
 O         1.895091         1.454870         0.535989
 C         2.161547        -0.942978         1.045848
 C         2.878854        -1.949581         0.465587
 C         2.975656        -1.783946        -1.008830
 C         3.724432        -0.597560        -1.503615
 C         2.260444        -0.471583        -1.265328
 O         1.429348        -0.620649        -2.438735
 H        -0.267424         0.673797        -0.907875
 H         0.018982        -1.005968        -0.751408
 H        -0.523225         0.092989         0.669886
 H         1.220096         1.935356        -0.079004
 H         2.065211        -0.564156         2.098372
 H         3.060856        -2.917223         0.950801
 H         2.786173        -2.651122        -1.650208
 H         4.348912         0.008903        -0.839496
 H         4.022525        -0.735549        -2.571286
 H         1.746730         0.196836        -2.856168
