19
Iteration:  3741
 C         0.054820         0.016069        -0.087109
 C         1.564501        -0.029005        -0.016410
 O         1.966501         1.227945         0.259267
 C         2.022497        -1.056351         0.996594
 C         2.970580        -1.844013         0.496969
 C         3.274499        -1.671946        -0.925638
 C         3.685229        -0.296005        -1.438023
 C         2.186018        -0.563055        -1.341495
 O         1.338590        -0.686129        -2.357369
 H        -0.268102         0.783864        -0.954469
 H        -0.377865        -0.917210        -0.207600
 H        -0.301261         0.601574         0.832255
 H         2.386423         1.334778         1.086020
 H         1.540977        -1.098801         1.909398
 H         3.318807        -2.802020         1.009668
 H         3.463802        -2.484782        -1.639961
 H         4.044799         0.216606        -0.566821
 H         4.260621        -0.445891        -2.459043
 H         1.068244         0.272607        -2.444563
