19
Iteration:  4375
 C        -0.063691        -0.160181         0.070760
 C         1.524853        -0.005035         0.071474
 O         1.925294         1.340722         0.372628
 C         2.199160        -0.957326         1.002767
 C         2.918636        -1.838236         0.412638
 C         3.041497        -1.737234        -1.082164
 C         3.831389        -0.464836        -1.472568
 C         2.193140        -0.545902        -1.332413
 O         1.442327        -0.542036        -2.481120
 H        -0.442906        -0.956359        -0.527693
 H        -0.493262        -0.241598         1.179205
 H        -0.609841         0.655411        -0.324845
 H         2.322967         1.370931         1.331578
 H         2.078164        -0.796087         2.106313
 H         3.622206        -2.574004         0.919645
 H         2.921881        -2.671036        -1.759184
 H         4.469105        -0.198324        -0.657118
 H         4.139341        -0.405428        -2.511994
 H         1.484657         0.350976        -2.854561
