19
Iteration:  4489
 C         0.052574        -0.203635         0.066953
 C         1.572518        -0.053201         0.033352
 O         1.732204         1.364364         0.405172
 C         2.292809        -0.896479         1.061328
 C         2.987825        -1.994038         0.526333
 C         2.950753        -1.816095        -1.004061
 C         3.675958        -0.549134        -1.539192
 C         2.217550        -0.507388        -1.326025
 O         1.597696        -0.261562        -2.535953
 H        -0.306893        -1.194203        -0.316422
 H        -0.261599        -0.069384         1.013194
 H        -0.458509         0.580559        -0.587396
 H         2.552598         1.724181        -0.082499
 H         2.089936        -0.817726         2.207265
 H         3.357130        -2.890825         1.159141
 H         2.800088        -2.720409        -1.652801
 H         4.458792         0.030902        -1.031236
 H         3.878837        -0.458132        -2.644635
 H         0.729451        -0.769323        -2.575360
