19
Iteration:   739
 C         0.001378        -0.119922        -0.046270
 C         1.598969        -0.041903        -0.011183
 O         1.876476         1.341953         0.149492
 C         2.045103        -0.928356         1.116718
 C         2.846838        -1.868548         0.557315
 C         2.990258        -1.810086        -0.988885
 C         3.767158        -0.530235        -1.273421
 C         2.227242        -0.575533        -1.293604
 O         1.584914        -0.465762        -2.542561
 H        -0.362943         0.604056         0.691808
 H        -0.381123         0.180604        -1.006070
 H        -0.290528        -1.058517         0.318822
 H         2.845580         1.525776         0.220248
 H         1.891684        -0.721417         2.206224
 H         3.441889        -2.536039         1.221805
 H         3.034242        -2.738660        -1.589122
 H         4.387526        -0.020637        -0.479871
 H         4.206245        -0.416349        -2.254518
 H         1.233660         0.461492        -2.560181
