19
Iteration:   100
 C         0.080842        -0.124709        -0.060439
 C         1.594913        -0.042842        -0.046398
 O         1.990184         1.343165         0.116910
 C         2.058398        -0.966378         0.991699
 C         2.840462        -1.898832         0.571260
 C         3.068908        -1.821093        -0.956924
 C         3.749989        -0.458714        -1.298455
 C         2.246441        -0.634959        -1.310219
 O         1.389642        -0.423246        -2.401054
 H        -0.296894         0.025127         0.991221
 H        -0.344228         0.621418        -0.753738
 H        -0.232470        -1.031817        -0.478366
 H         1.880051         1.464903         1.052679
 H         2.093661        -0.520659         1.970676
 H         3.374188        -2.548073         1.288123
 H         3.253432        -2.717335        -1.584422
 H         4.235472         0.017125        -0.437768
 H         4.080499        -0.363825        -2.308523
 H         1.314827         0.508510        -2.672245
