19
Iteration:  2259charge 0 multiplicity 1
 C         0.055300        -0.184841         0.094337
 C         1.614823        -0.020451         0.026894
 O         1.955462         1.475284         0.043509
 C         2.227112        -0.931627         1.000858
 C         2.879031        -2.038365         0.551341
 C         2.985365        -1.858429        -1.020773
 C         3.712937        -0.475153        -1.254055
 C         2.177828        -0.562170        -1.267856
 O         1.362068        -0.405112        -2.465685
 H        -0.322140         0.579959        -0.536978
 H        -0.315067        -1.186007        -0.356720
 H        -0.288538        -0.104552         1.152509
 H         2.712247         1.453629        -0.639362
 H         1.978444        -0.739949         2.107415
 H         3.578729        -2.731938         1.107471
 H         3.242691        -2.702012        -1.663219
 H         3.996457         0.049903        -0.306294
 H         4.435353        -0.618438        -2.046829
 H         1.180908         0.541507        -2.421839
