19
Iteration:  1639charge 0 multiplicity 1
 C        -0.055451        -0.093424        -0.128440
 C         1.525494         0.000138         0.014111
 O         1.949157         1.341479         0.331751
 C         2.162350        -0.939777         1.094295
 C         2.945543        -1.883204         0.517935
 C         3.041416        -1.872068        -0.956998
 C         3.675492        -0.621109        -1.436746
 C         2.253709        -0.537855        -1.282169
 O         1.446989        -0.396400        -2.422697
 H        -0.284543         0.971191        -0.398600
 H        -0.462674        -0.818950        -0.826209
 H        -0.499266        -0.372707         0.875587
 H         2.205493         1.713372        -0.473084
 H         2.214303        -0.612101         2.123361
 H         3.518737        -2.475100         1.223733
 H         3.082546        -2.675315        -1.678796
 H         4.066227        -0.016682        -0.592823
 H         4.239705        -0.524613        -2.328361
 H         2.108080        -0.135803        -3.107213
