19
Iteration:  4591
 C        -0.035160         0.108796        -0.053971
 C         1.502684        -0.086778         0.025715
 O         2.109551         1.243051         0.416494
 C         1.949912        -1.152144         1.019990
 C         3.115897        -1.841319         0.436155
 C         3.145358        -1.708142        -1.010074
 C         3.675034        -0.281516        -1.501973
 C         2.196968        -0.541495        -1.294846
 O         1.290620        -0.656884        -2.432401
 H        -0.520107        -0.829651         0.061567
 H        -0.540807         0.720607         0.787287
 H        -0.397218         0.554382        -0.909799
 H         2.629652         1.051683         1.191813
 H         1.815606        -1.134408         2.092876
 H         3.893697        -2.398085         0.968947
 H         3.370292        -2.523753        -1.740587
 H         4.105604         0.376958        -0.767822
 H         3.973130        -0.212859        -2.554189
 H         1.769378        -0.153543        -3.108589
