19
Iteration:  4120charge 0 multiplicity 1
 C         0.063318        -0.208788         0.130161
 C         1.610421        -0.035999         0.028472
 O         1.691774         1.353480         0.228924
 C         2.269003        -0.926374         1.096857
 C         2.935378        -1.981611         0.475593
 C         2.947292        -1.830841        -0.995160
 C         3.757200        -0.563370        -1.409174
 C         2.201421        -0.457524        -1.328691
 O         1.544031        -0.349841        -2.557619
 H        -0.205829        -0.742156        -0.876023
 H        -0.103337        -0.783842         0.993361
 H        -0.506968         0.797513         0.153702
 H         2.504876         1.642486         0.547977
 H         2.004068        -0.699940         2.183889
 H         3.490965        -2.728756         1.106030
 H         3.010664        -2.744146        -1.667825
 H         4.360354         0.070876        -0.657043
 H         3.875927        -0.590725        -2.550491
 H         1.497033         0.584132        -2.740149
