19
Iteration:  3597charge 0 multiplicity 1
 C         0.086426        -0.320275         0.077974
 C         1.571898        -0.004938        -0.056317
 O         1.765103         1.397737         0.091819
 C         2.319628        -0.820844         1.060995
 C         2.911825        -1.911274         0.533378
 C         2.952624        -1.844212        -0.969597
 C         3.729659        -0.585751        -1.332181
 C         2.177436        -0.581859        -1.295412
 O         1.506690        -0.276495        -2.507773
 H        -0.518173         0.276267        -0.726372
 H        -0.064139        -1.433204         0.041782
 H        -0.124712        -0.100607         1.152259
 H         2.048081         1.453094         0.960192
 H         2.090543        -0.672412         2.155048
 H         3.257097        -2.778695         1.002372
 H         2.762604        -2.762714        -1.557602
 H         4.226775        -0.202012        -0.401120
 H         4.249985        -0.669987        -2.254984
 H         1.839975         0.599291        -2.740723
