19
Iteration:  2764
 C         0.070906        -0.139739         0.202085
 C         1.559460        -0.080553         0.028626
 O         1.767770         1.288878         0.132121
 C         2.214460        -0.860039         1.017587
 C         2.890496        -1.861729         0.531768
 C         2.914496        -1.826500        -1.002222
 C         3.800969        -0.578299        -1.393764
 C         2.210175        -0.543070        -1.364538
 O         1.516960        -0.367986        -2.515208
 H        -0.389354         0.867345         0.211900
 H        -0.493175        -0.699618        -0.486011
 H        -0.161271        -0.457704         1.263221
 H         2.758515         1.349200         0.214084
 H         2.089959        -0.845074         2.078337
 H         3.591107        -2.443406         1.135098
 H         3.024629        -2.780103        -1.602574
 H         4.385713        -0.228293        -0.552479
 H         4.261099        -0.557322        -2.375805
 H         1.550444         0.548557        -2.784990
