19
Iteration:    66charge 0 multiplicity 1
 C        -0.022527        -0.058808        -0.094473
 C         1.563429        -0.026690         0.064089
 O         2.031542         1.366867         0.264520
 C         2.135466        -1.070912         1.129261
 C         2.937724        -2.042595         0.547828
 C         2.987032        -1.748515        -0.922376
 C         3.708078        -0.384566        -1.428597
 C         2.204864        -0.531006        -1.289062
 O         1.443199        -0.463763        -2.472938
 H        -0.642084         0.677404         0.437447
 H        -0.253933         0.131082        -1.138645
 H        -0.427823        -1.005510         0.248977
 H         1.348569         1.828164        -0.320640
 H         2.214806        -0.836324         2.158136
 H         3.409898        -2.850607         1.076843
 H         3.193572        -2.587603        -1.563693
 H         4.344209         0.257816        -0.766806
 H         4.146657        -0.455931        -2.372596
 H         2.018110        -0.442327        -3.277422
