19
Iteration:   981charge 0 multiplicity 1
 C         0.132994        -0.145074        -0.230773
 C         1.612449         0.013694         0.008096
 O         1.860652         1.390552         0.358579
 C         2.100201        -0.943583         1.042764
 C         2.821992        -1.952658         0.569705
 C         2.988412        -1.762842        -0.881156
 C         3.843876        -0.612388        -1.415307
 C         2.263354        -0.556843        -1.315190
 O         1.355204        -0.343782        -2.405051
 H        -0.178503         0.472797        -1.036649
 H        -0.167248        -1.109310        -0.507631
 H        -0.432608         0.014816         0.707482
 H         2.504441         1.698341        -0.229628
 H         1.852008        -0.871863         2.119782
 H         3.326713        -2.743420         1.178974
 H         3.101116        -2.733456        -1.378905
 H         4.280728         0.087151        -0.698538
 H         4.349285        -0.548077        -2.360416
 H         1.855797        -0.680168        -3.160295
