19
Iteration:  4794
 C         0.046346        -0.310416         0.028260
 C         1.598260        -0.028962         0.075766
 O         1.845318         1.297785         0.225943
 C         2.272681        -0.911802         1.108086
 C         2.977059        -1.873677         0.471702
 C         2.851722        -1.773134        -0.957655
 C         3.705908        -0.518924        -1.481818
 C         2.163910        -0.527510        -1.275955
 O         1.548011        -0.260465        -2.483543
 H        -0.204702        -1.243269        -0.511206
 H        -0.474665        -0.301980         1.023752
 H        -0.472046         0.499760        -0.594752
 H         2.861560         1.406839        -0.056798
 H         2.103456        -1.043732         2.164001
 H         3.432340        -2.646874         0.998236
 H         2.722869        -2.571684        -1.661102
 H         4.462667        -0.330763        -0.775977
 H         4.135365        -0.607026        -2.462749
 H         0.864116         0.393611        -2.404926
