19
Iteration:  3848
 C         0.141052        -0.335628        -0.063389
 C         1.626981        -0.020887         0.085659
 O         1.863657         1.368960         0.183034
 C         2.199342        -0.873916         1.156855
 C         2.933065        -1.861371         0.519594
 C         2.936315        -1.817167        -0.985193
 C         3.683986        -0.621554        -1.557567
 C         2.215165        -0.538470        -1.278360
 O         1.448452        -0.280684        -2.355517
 H        -0.066292        -0.026767        -1.092200
 H         0.093052        -1.358408        -0.030416
 H        -0.462645         0.157346         0.738969
 H         0.978101         1.780056         0.228070
 H         2.134440        -0.606531         2.209156
 H         3.426219        -2.702326         1.110788
 H         2.693364        -2.798051        -1.421150
 H         4.379250        -0.145706        -0.813990
 H         4.190520        -0.474833        -2.587219
 H         1.924008         0.405616        -2.892783
