19
Iteration:  4427charge 0 multiplicity 1
 C         0.131804        -0.349498         0.099844
 C         1.585453        -0.064376         0.100320
 O         1.800795         1.399672         0.081215
 C         2.313021        -0.923271         1.111336
 C         2.855062        -2.018615         0.400671
 C         2.972092        -1.755322        -1.018797
 C         3.680403        -0.518780        -1.372331
 C         2.188623        -0.499918        -1.281180
 O         1.458304        -0.235601        -2.423873
 H         0.035427        -1.425415         0.215909
 H        -0.594650         0.275131         0.903126
 H        -0.225557        -0.175875        -0.912999
 H         2.764030         1.398706         0.492476
 H         2.204094        -1.047097         2.251510
 H         3.246429        -2.964823         0.939580
 H         2.996209        -2.597614        -1.815465
 H         4.191308         0.086154        -0.689441
 H         3.783546        -0.433824        -2.439970
 H         1.843217         0.636273        -2.727854
