19
Iteration:  2709charge 0 multiplicity 1
 C         0.121020        -0.165623        -0.025286
 C         1.657397        -0.077674         0.044014
 O         1.848220         1.350028         0.118469
 C         2.214665        -0.938149         1.094276
 C         2.887588        -1.954540         0.529999
 C         2.930700        -1.779034        -0.990862
 C         3.775388        -0.504438        -1.365319
 C         2.218470        -0.518977        -1.301293
 O         1.364856        -0.415691        -2.420720
 H        -0.397752         0.654050        -0.570719
 H        -0.297706        -1.082501        -0.216741
 H        -0.168554        -0.039819         1.047726
 H         2.729937         1.568142        -0.161687
 H         2.360116        -0.671967         2.136851
 H         3.127505        -2.830361         1.090192
 H         2.932500        -2.666668        -1.588476
 H         4.259298        -0.015341        -0.587781
 H         4.285937        -0.330612        -2.360682
 H         1.204711         0.533249        -2.565696
