19
Iteration:  3293
 C         0.141011        -0.394674         0.037165
 C         1.612407         0.038864        -0.003797
 O         1.850513         1.368229         0.124445
 C         2.229982        -0.805457         1.068792
 C         2.860094        -1.954068         0.554311
 C         2.943773        -1.828141        -0.895092
 C         3.807976        -0.591392        -1.425507
 C         2.232703        -0.458944        -1.351514
 O         1.393982        -0.349129        -2.482889
 H        -0.484223         0.328089        -0.647536
 H         0.053114        -1.352903        -0.263729
 H        -0.047286        -0.288517         1.099784
 H         1.635823         1.862851         0.903996
 H         2.101614        -0.570308         2.141078
 H         3.303219        -2.862013         1.079835
 H         2.896945        -2.584785        -1.601114
 H         4.273828        -0.008891        -0.593713
 H         4.218074        -0.712887        -2.375706
 H         1.315432         0.621964        -2.614022
