19
Iteration:   392
 C         0.113593        -0.151844        -0.061481
 C         1.571621         0.042258         0.016031
 O         1.745672         1.441180         0.361392
 C         2.117185        -0.903994         1.012490
 C         2.828770        -1.893727         0.534788
 C         3.116974        -1.818731        -0.853731
 C         3.775071        -0.579272        -1.404725
 C         2.283095        -0.505960        -1.352639
 O         1.443773        -0.476205        -2.533056
 H        -0.418186        -0.084522         0.947985
 H        -0.325012         0.709112        -0.628371
 H        -0.101286        -1.114693        -0.449048
 H         2.701899         1.496746         0.255037
 H         1.697490        -1.008967         2.039659
 H         2.959788        -2.885284         0.960734
 H         3.153828        -2.618917        -1.548486
 H         4.432796        -0.078462        -0.679726
 H         4.194552        -0.722328        -2.356853
 H         2.102307        -0.576156        -3.261230
