19
Iteration:  3878
 C         0.028399        -0.465032         0.058405
 C         1.601305        -0.008806         0.035402
 O         1.895932         1.487112         0.189924
 C         2.405544        -0.838813         1.044442
 C         2.830709        -1.980653         0.534610
 C         2.886419        -1.774418        -0.994727
 C         3.743776        -0.653082        -1.367371
 C         2.218521        -0.451856        -1.322071
 O         1.479233        -0.289379        -2.498807
 H        -0.252942        -0.366680        -0.971595
 H        -0.088700        -1.587150         0.444277
 H        -0.684145         0.166750         0.671937
 H         0.989478         1.933334         0.136028
 H         2.326974        -0.518107         2.033451
 H         3.463796        -2.832253         0.942811
 H         2.779091        -2.749557        -1.508786
 H         4.302208        -0.308014        -0.542187
 H         4.345745        -0.675805        -2.294574
 H         1.360665         0.665726        -2.620793
