19
Iteration:  2232
 C         0.101091        -0.194310        -0.038986
 C         1.625771        -0.033952         0.040341
 O         1.782946         1.383435         0.122080
 C         2.213986        -0.858500         1.099210
 C         2.902872        -1.913845         0.572753
 C         2.946414        -1.824096        -0.994755
 C         3.779666        -0.647588        -1.505919
 C         2.273688        -0.481209        -1.220768
 O         1.409094        -0.394179        -2.366833
 H        -0.159588         0.599338        -0.782771
 H        -0.088049        -1.072426        -0.589900
 H        -0.442962        -0.111287         0.885817
 H         2.758763         1.461225         0.364983
 H         2.205608        -0.474641         2.111470
 H         3.180961        -2.877853         0.979703
 H         2.755827        -2.753197        -1.523527
 H         4.563972        -0.304830        -0.827603
 H         3.932732        -0.591977        -2.575598
 H         1.206726         0.551598        -2.331294
