19
Iteration:  4179charge 0 multiplicity 1
 C         0.223045        -0.421803         0.054570
 C         1.727911        -0.037752         0.022883
 O         1.606716         1.380885         0.220319
 C         2.298582        -0.828927         1.093179
 C         2.883393        -1.960415         0.514314
 C         2.823384        -1.836732        -1.013021
 C         3.739763        -0.690740        -1.439364
 C         2.232837        -0.492367        -1.289820
 O         1.523961        -0.126842        -2.482662
 H         0.028555        -1.392958         0.358373
 H        -0.369940         0.207571         0.811710
 H        -0.258071        -0.341682        -0.856949
 H         2.442123         1.907678        -0.065488
 H         2.066762        -0.598713         2.142740
 H         3.121839        -2.892588         1.000357
 H         2.677098        -2.745478        -1.531885
 H         4.431639        -0.320613        -0.745282
 H         4.149792        -0.682996        -2.399787
 H         1.580260         0.839031        -2.614437
