19
Iteration:  4349
 C         0.060193        -0.050565        -0.118215
 C         1.580303        -0.044651         0.057919
 O         1.963533         1.276104         0.405121
 C         2.144172        -1.041513         1.054682
 C         3.076141        -1.917391         0.510198
 C         3.071670        -1.683852        -0.981202
 C         3.595962        -0.417211        -1.518805
 C         2.115798        -0.504913        -1.281492
 O         1.458963        -0.561122        -2.523405
 H        -0.500216        -0.630510        -0.917894
 H        -0.406148        -0.319843         0.945125
 H        -0.400736         1.005607        -0.235514
 H         2.568618         1.329345         1.254864
 H         1.820155        -1.003053         2.084791
 H         3.731791        -2.497754         1.089490
 H         2.989350        -2.496081        -1.611487
 H         4.257986         0.303462        -0.970100
 H         3.829463        -0.453249        -2.585586
 H         0.739876         0.045459        -2.623589
