19
Iteration:  3392
 C         0.036553        -0.249409        -0.122132
 C         1.543963        -0.043211         0.051327
 O         2.147764         1.343189         0.308080
 C         2.083570        -1.031089         1.115841
 C         2.926798        -1.892892         0.519603
 C         3.090899        -1.710186        -0.936045
 C         3.671970        -0.314842        -1.524545
 C         2.168343        -0.489178        -1.292375
 O         1.351447        -0.576060        -2.410794
 H        -0.236948         0.222243        -1.184321
 H        -0.216031        -1.244135        -0.129031
 H        -0.552832         0.466447         0.507072
 H         1.762965         1.870848         0.952141
 H         1.862112        -0.977214         2.144359
 H         3.519535        -2.700593         1.016547
 H         3.133529        -2.491243        -1.777817
 H         4.264173         0.408417        -0.997336
 H         4.140755        -0.518761        -2.551669
 H         1.190629         0.262203        -2.852654
