19
Iteration:  2463
 C         0.055392        -0.235937         0.115546
 C         1.620089         0.024951        -0.016985
 O         1.859401         1.385037         0.154837
 C         2.267151        -0.864487         1.104387
 C         2.815250        -1.972831         0.557271
 C         2.927322        -1.780772        -0.998088
 C         3.765378        -0.579864        -1.413914
 C         2.201534        -0.510852        -1.310649
 O         1.466967        -0.399672        -2.517129
 H        -0.640092         0.028902        -0.672497
 H        -0.223243        -1.304980         0.303786
 H        -0.153856         0.422717         1.006817
 H         2.807768         1.602670        -0.167801
 H         2.149447        -0.711211         2.237822
 H         3.265290        -2.865620         1.066234
 H         2.754879        -2.671859        -1.513505
 H         4.383247        -0.364766        -0.514598
 H         4.211256        -0.579154        -2.416871
 H         1.507459         0.529363        -2.773488
