19
Iteration:  2171
 C         0.039871        -0.157380        -0.006276
 C         1.565637         0.044134        -0.058867
 O         1.772940         1.380330         0.407310
 C         2.341979        -0.811400         1.107700
 C         2.881143        -1.900883         0.466818
 C         2.836788        -1.807270        -0.944386
 C         3.773711        -0.664041        -1.454876
 C         2.223677        -0.510359        -1.330099
 O         1.497643        -0.473412        -2.509867
 H        -0.550181         0.320825        -0.790062
 H        -0.127156        -1.269815        -0.013337
 H        -0.327176         0.196054         1.039352
 H         2.719416         1.555429         0.474142
 H         2.290496        -0.340994         2.030404
 H         3.500850        -2.679054         0.861989
 H         2.746658        -2.769561        -1.564958
 H         4.389606        -0.153282        -0.729935
 H         4.220902        -0.734087        -2.537768
 H         1.956829        -0.135912        -3.267743
