19
Iteration:  4264
 C        -0.046802         0.020788         0.074126
 C         1.500151        -0.029249         0.058960
 O         1.970926         1.315601         0.448430
 C         2.141643        -1.053331         1.043623
 C         2.947659        -2.070207         0.450004
 C         3.137314        -1.675105        -0.968268
 C         3.683422        -0.249589        -1.420591
 C         2.106783        -0.563171        -1.344080
 O         1.473646        -0.635504        -2.624663
 H        -0.212336        -0.789335         0.708893
 H        -0.287545         1.027197         0.604954
 H        -0.403310        -0.053697        -0.888264
 H         2.744434         1.332061        -0.058759
 H         1.892121        -1.023320         2.137293
 H         3.382874        -2.958690         0.913308
 H         3.332519        -2.478915        -1.632838
 H         4.249347         0.448409        -0.837420
 H         3.920547        -0.292612        -2.469797
 H         1.735280         0.146617        -3.161386
