19
Iteration:  4390
 C         0.083357        -0.194253         0.142030
 C         1.544450        -0.035478        -0.025398
 O         1.824485         1.362697         0.296382
 C         2.222505        -0.929895         1.001465
 C         2.925532        -1.971857         0.415597
 C         3.012709        -1.744283        -1.043149
 C         3.757872        -0.542522        -1.397155
 C         2.223531        -0.464230        -1.294105
 O         1.402818        -0.441858        -2.492593
 H        -0.248947        -1.245510        -0.094802
 H        -0.132961        -0.074560         1.096995
 H        -0.417636         0.621482        -0.477019
 H         2.223476         1.395510         1.177950
 H         2.024604        -0.877697         2.038302
 H         3.388942        -2.719814         1.004663
 H         3.070714        -2.486993        -1.776293
 H         4.282662         0.219653        -0.734790
 H         4.257370        -0.443491        -2.379962
 H         1.782224         0.277547        -3.096009
