19
Iteration:  3608
 C         0.095489        -0.350412         0.077425
 C         1.612035        -0.062117         0.030013
 O         1.791523         1.456679         0.010525
 C         2.320620        -0.872411         1.081790
 C         2.858111        -1.991504         0.547357
 C         2.979210        -1.816819        -0.945427
 C         3.706116        -0.553516        -1.288335
 C         2.194043        -0.571866        -1.292278
 O         1.466898        -0.284916        -2.533141
 H        -0.484894         0.412444        -0.620688
 H        -0.138391        -1.339238        -0.351276
 H        -0.411966        -0.115300         1.062941
 H         2.389152         1.735659         0.731106
 H         2.131920        -0.665502         2.173828
 H         3.212772        -2.821569         1.053734
 H         3.107762        -2.648823        -1.661378
 H         4.416551        -0.128467        -0.498534
 H         4.106079        -0.449233        -2.261377
 H         1.459138         0.708459        -2.588801
