19
Iteration:    68charge 0 multiplicity 1
 C        -0.026710        -0.062988        -0.105936
 C         1.571596        -0.016636         0.065739
 O         2.037903         1.355688         0.248061
 C         2.144297        -1.063303         1.131800
 C         2.953876        -2.036378         0.542719
 C         2.983108        -1.737961        -0.922825
 C         3.708804        -0.390188        -1.405796
 C         2.219747        -0.544568        -1.295625
 O         1.427755        -0.457171        -2.462895
 H        -0.681498         0.677066         0.455589
 H        -0.305335         0.128649        -1.158807
 H        -0.412118        -0.984264         0.170617
 H         1.281207         1.850447        -0.255889
 H         2.164123        -0.906024         2.207380
 H         3.375616        -2.886338         1.109704
 H         3.166322        -2.594288        -1.593702
 H         4.308746         0.267620        -0.729573
 H         4.177445        -0.527243        -2.353532
 H         1.937253        -0.368564        -3.308912
