19
Iteration:  2370charge 0 multiplicity 1
 C         0.057914        -0.109571        -0.180479
 C         1.598749        -0.014230         0.103813
 O         2.056361         1.357774         0.319078
 C         2.153412        -1.013342         1.091588
 C         3.002946        -1.893813         0.525273
 C         2.977022        -1.745974        -0.874479
 C         3.643340        -0.409239        -1.534891
 C         2.161250        -0.548344        -1.305541
 O         1.338030        -0.553055        -2.382013
 H        -0.183791         0.827359        -0.751733
 H        -0.166612        -0.884920        -0.973646
 H        -0.680565        -0.123782         0.581743
 H         2.985362         1.333757         0.223482
 H         1.720510        -1.072210         2.080822
 H         3.492336        -2.612809         1.124722
 H         3.057845        -2.617017        -1.503595
 H         4.248660         0.205398        -0.927751
 H         3.880596        -0.589368        -2.609989
 H         1.313030         0.279293        -2.910356
