19
Iteration:  4330charge 0 multiplicity 1
 C         0.083612         0.048146        -0.128510
 C         1.551109        -0.123287         0.052696
 O         1.963581         1.241594         0.434540
 C         2.077299        -1.054857         1.080208
 C         3.008448        -1.873120         0.509417
 C         3.158762        -1.719499        -0.969371
 C         3.651201        -0.254020        -1.522534
 C         2.203933        -0.602303        -1.361245
 O         1.336070        -0.587474        -2.498547
 H        -0.242486        -0.647356        -0.836805
 H        -0.490524        -0.077611         0.897724
 H        -0.115384         1.024586        -0.465736
 H         2.962854         1.067922         0.713070
 H         1.841913        -0.909648         2.136632
 H         3.503967        -2.681235         1.020059
 H         3.481115        -2.587623        -1.572641
 H         4.046285         0.436235        -0.849602
 H         3.935661        -0.307094        -2.544118
 H         0.582779        -0.035782        -2.186194
