19
Iteration:  3443
 C        -0.055253         0.136751         0.081460
 C         1.529733        -0.053669         0.002761
 O         1.880541         1.286110         0.360268
 C         2.137419        -1.013280         1.008589
 C         3.034662        -1.858871         0.473451
 C         3.168389        -1.747654        -0.953134
 C         3.734490        -0.383871        -1.473270
 C         2.183628        -0.605469        -1.375493
 O         1.397930        -0.718389        -2.531425
 H        -0.382733         1.119605        -0.238834
 H        -0.403892        -0.639196        -0.634473
 H        -0.484070         0.038950         1.053414
 H         2.177065         1.409361         1.288903
 H         1.924112        -0.914024         2.052470
 H         3.674974        -2.570784         1.081965
 H         3.442954        -2.568214        -1.589539
 H         4.171753         0.289254        -0.780521
 H         4.238090        -0.242011        -2.390297
 H         1.499558         0.100812        -3.065614
