19
Iteration:  1284charge 0 multiplicity 1
 C        -0.046184        -0.097556        -0.090125
 C         1.445834        -0.039404         0.020076
 O         1.813517         1.400285         0.304334
 C         2.224157        -0.876930         0.987644
 C         2.998222        -1.861516         0.538013
 C         2.974828        -1.815635        -0.930350
 C         3.828531        -0.685542        -1.362663
 C         2.202932        -0.620150        -1.304950
 O         1.506193        -0.390375        -2.531898
 H        -0.320196         0.724795        -0.761261
 H        -0.354965        -1.004732        -0.562555
 H        -0.401392         0.053065         0.981431
 H         2.366224         1.423320         1.048569
 H         2.049745        -0.599262         2.037565
 H         3.505281        -2.628496         1.103973
 H         2.896080        -2.814244        -1.366760
 H         4.431060        -0.183212        -0.707109
 H         4.216807        -0.734969        -2.415626
 H         2.062738         0.376999        -2.796921
