19
Iteration:   787
 C         0.097948        -0.143261         0.021608
 C         1.537911        -0.013149         0.009439
 O         1.799417         1.486925         0.124305
 C         2.143525        -0.898067         1.080288
 C         2.663158        -1.934273         0.481660
 C         3.063329        -1.838758        -0.952663
 C         3.798891        -0.530228        -1.341566
 C         2.279470        -0.583525        -1.257612
 O         1.621712        -0.424750        -2.465125
 H        -0.341714         0.686924         0.593633
 H        -0.125674         0.092743        -1.027503
 H        -0.254122        -1.102479         0.548139
 H         2.735184         1.470671         0.031777
 H         1.770703        -0.834715         2.083015
 H         2.948166        -2.859351         0.989269
 H         3.022454        -2.710445        -1.628253
 H         4.327408        -0.167726        -0.515385
 H         4.325609        -0.341124        -2.333499
 H         0.958867        -1.111847        -2.568860
