19
Iteration:  4764charge 0 multiplicity 1
 C         0.141345        -0.314667         0.074115
 C         1.680270         0.043831        -0.014023
 O         1.634885         1.479235         0.341061
 C         2.290287        -0.938985         1.014558
 C         2.831628        -2.003301         0.461503
 C         2.949448        -1.866052        -0.959319
 C         3.760899        -0.639083        -1.512324
 C         2.228938        -0.550663        -1.363805
 O         1.548849        -0.222723        -2.457270
 H        -0.074297        -1.338492         0.404280
 H        -0.294065         0.367140         0.967470
 H        -0.499611        -0.061904        -0.781677
 H         2.464130         1.860292         0.175233
 H         2.351492        -0.804115         2.127395
 H         3.385267        -2.761252         0.990617
 H         2.966820        -2.612301        -1.696253
 H         4.386114        -0.122801        -0.824145
 H         4.150737        -0.863367        -2.487557
 H         0.740608         0.279068        -2.211541
