19
Iteration:  2603charge 0 multiplicity 1
 C         0.074905         0.019320        -0.057982
 C         1.572548        -0.061314         0.029429
 O         1.976670         1.360372         0.101563
 C         2.083185        -1.079486         1.071033
 C         2.962468        -1.945999         0.484178
 C         3.131508        -1.784132        -0.934260
 C         3.657049        -0.389932        -1.336594
 C         2.157022        -0.568729        -1.264427
 O         1.371188        -0.530760        -2.353787
 H        -0.307646         0.775878        -0.701653
 H        -0.301171        -0.923165        -0.507429
 H        -0.245197         0.108762         1.021360
 H         2.884005         1.340136        -0.291030
 H         1.827263        -0.796260         2.072461
 H         3.359440        -2.803497         0.968888
 H         3.265628        -2.625009        -1.575809
 H         4.278358         0.148447        -0.680730
 H         4.007123        -0.367773        -2.431640
 H         1.113262         0.395798        -2.515255
