19
Iteration:  4491
 C         0.058798        -0.206914         0.062654
 C         1.568516        -0.057192         0.033525
 O         1.739701         1.369372         0.404092
 C         2.289603        -0.904085         1.073488
 C         2.971993        -1.992397         0.523616
 C         2.951603        -1.810366        -1.014238
 C         3.695245        -0.543551        -1.551145
 C         2.204884        -0.505708        -1.321209
 O         1.596093        -0.271849        -2.530356
 H        -0.302358        -1.112256        -0.367338
 H        -0.320188        -0.080345         1.075148
 H        -0.441975         0.529376        -0.548168
 H         2.600232         1.758444        -0.036545
 H         2.091949        -0.780918         2.179789
 H         3.394058        -2.872134         1.134598
 H         2.736958        -2.756039        -1.639752
 H         4.390327         0.100048        -1.031315
 H         3.888723        -0.445574        -2.612136
 H         0.819909        -0.838258        -2.593781
