19
Iteration:  4445charge 0 multiplicity 1
 C         0.029580        -0.376029         0.072916
 C         1.575392        -0.053875         0.019570
 O         1.818277         1.348561         0.163933
 C         2.269909        -0.904288         1.041402
 C         2.937540        -1.966325         0.451100
 C         2.883251        -1.830465        -1.048964
 C         3.765620        -0.511569        -1.408104
 C         2.239126        -0.486807        -1.222571
 O         1.464001        -0.207873        -2.402030
 H        -0.205491        -1.427311         0.289572
 H        -0.321741         0.212641         0.777037
 H        -0.598197        -0.228612        -0.847883
 H         2.770776         1.604196        -0.179111
 H         2.197434        -0.653263         2.125465
 H         3.459940        -2.748501         1.014879
 H         2.862428        -2.629625        -1.752261
 H         4.490453        -0.357297        -0.576012
 H         4.216919        -0.424586        -2.430459
 H         1.313906         0.770109        -2.261180
