19
Iteration:  1202charge 0 multiplicity 1
 C         0.064796        -0.092704        -0.124167
 C         1.544856        -0.037696        -0.015541
 O         1.961242         1.243946         0.195896
 C         2.124814        -0.972280         1.066556
 C         2.786190        -2.007730         0.545834
 C         3.069303        -1.696228        -0.996514
 C         3.690324        -0.373648        -1.274733
 C         2.221665        -0.537199        -1.289286
 O         1.510031        -0.513273        -2.411676
 H        -0.282376         0.497203        -0.974699
 H        -0.513531        -1.054026         0.006239
 H        -0.360144         0.562403         0.581367
 H         2.747096         1.449271        -0.329036
 H         1.825084        -0.531285         2.064607
 H         3.369249        -2.810319         1.129893
 H         3.186923        -2.446874        -1.787439
 H         4.142938         0.152150        -0.405405
 H         4.479784        -0.375960        -2.098909
 H         0.956411         0.275579        -2.461844
