19
Iteration:   811
 C        -0.082729        -0.082683        -0.115979
 C         1.574622         0.004241        -0.036280
 O         1.859781         1.368051         0.216782
 C         2.175962        -0.966081         1.124638
 C         2.936209        -1.880809         0.601206
 C         2.869560        -1.825892        -0.854642
 C         3.718712        -0.675198        -1.302097
 C         2.241581        -0.510915        -1.279733
 O         1.627880        -0.346867        -2.595052
 H        -0.351468         0.318112         0.911656
 H        -0.613634         0.577747        -0.880381
 H        -0.323029        -1.127036         0.122037
 H         2.652469         1.673994        -0.225444
 H         2.063173        -0.612818         2.155482
 H         3.611531        -2.650408         1.066784
 H         3.143836        -2.596321        -1.629647
 H         4.261896        -0.018278        -0.623190
 H         4.119489        -0.577898        -2.348754
 H         1.537709        -1.260567        -2.925193
