19
Iteration:  1479charge 0 multiplicity 1
 C         0.102115        -0.074585        -0.114628
 C         1.556071         0.092569         0.012144
 O         1.871927         1.415872         0.470062
 C         2.224452        -0.954501         1.104169
 C         2.892014        -1.969712         0.504160
 C         2.862138        -1.783095        -0.967842
 C         3.790886        -0.567341        -1.519937
 C         2.258112        -0.494675        -1.278118
 O         1.503479        -0.586814        -2.485532
 H        -0.227652         0.760686        -0.699840
 H        -0.156859        -0.950860        -0.622892
 H        -0.349283        -0.160512         0.909171
 H         1.549020         2.060741        -0.091521
 H         1.830443        -1.172879         2.147204
 H         3.501257        -2.757689         1.082480
 H         2.612471        -2.565243        -1.676631
 H         4.590144        -0.326847        -0.777003
 H         4.006581        -0.452541        -2.513135
 H         1.526407         0.125007        -3.160699
