19
Iteration:  4970
 C         0.123882        -0.179540         0.142892
 C         1.570771        -0.020390        -0.026053
 O         1.899122         1.399206         0.257438
 C         2.203831        -0.972934         1.029721
 C         2.894343        -1.954049         0.542748
 C         3.009951        -1.716739        -1.009329
 C         3.668749        -0.445006        -1.368078
 C         2.177245        -0.476982        -1.377558
 O         1.409135        -0.555490        -2.499452
 H        -0.345975         0.540816        -0.487695
 H        -0.171946        -1.216088        -0.239194
 H        -0.206179        -0.130419         1.134458
 H         2.675916         1.566600        -0.187072
 H         2.076192        -0.688400         2.057305
 H         3.309817        -2.791116         1.127268
 H         3.296843        -2.559085        -1.711591
 H         4.109677        -0.086821        -0.496600
 H         4.231172        -0.355477        -2.271804
 H         1.413973         0.217573        -3.048358
