19
Iteration:  2106
 C        -0.021663        -0.068234         0.101659
 C         1.538543        -0.083308        -0.050527
 O         1.985684         1.319482         0.085477
 C         2.170655        -0.912759         0.989506
 C         2.827544        -1.996798         0.561349
 C         3.116099        -1.788296        -0.988253
 C         3.710698        -0.461850        -1.303378
 C         2.213928        -0.591101        -1.336757
 O         1.429897        -0.408886        -2.458195
 H        -0.638074         0.669684        -0.437502
 H        -0.245495        -1.132672        -0.059594
 H        -0.158769         0.167645         1.245990
 H         3.027084         1.271163         0.144828
 H         1.859333        -0.701361         1.980792
 H         3.623334        -2.496018         1.009307
 H         3.235780        -2.797930        -1.459429
 H         4.216926         0.149081        -0.569034
 H         4.241043        -0.152030        -2.231283
 H         0.632538         0.087416        -2.140403
