19
Iteration:  3475charge 0 multiplicity 1
 C        -0.039418        -0.001891         0.190648
 C         1.530520        -0.025699         0.024558
 O         1.980525         1.296965         0.210272
 C         2.067103        -1.033870         0.995677
 C         2.956411        -1.926500         0.517947
 C         3.057732        -1.681501        -0.955173
 C         3.611614        -0.270064        -1.426655
 C         2.192680        -0.568783        -1.301529
 O         1.541866        -0.683832        -2.524966
 H        -0.367118         0.942520        -0.053038
 H        -0.294491        -0.709619        -0.687956
 H        -0.355236        -0.563837         1.024354
 H         2.961232         1.354524        -0.030320
 H         1.848918        -0.850676         2.021831
 H         3.652402        -2.613146         1.082785
 H         3.325752        -2.539750        -1.558991
 H         4.106878         0.267310        -0.646768
 H         3.988096        -0.336517        -2.422321
 H         1.366759         0.140529        -3.023398
