19
Iteration:  4467
 C         0.073911        -0.256405         0.099171
 C         1.572814        -0.060029         0.029744
 O         1.738285         1.363878         0.323495
 C         2.237602        -0.936224         1.058446
 C         2.981172        -1.927874         0.445040
 C         2.983095        -1.841686        -1.026454
 C         3.758468        -0.660096        -1.426220
 C         2.200749        -0.513121        -1.321982
 O         1.507923        -0.187876        -2.514996
 H        -0.250172        -1.312722         0.036213
 H        -0.303571         0.208808         0.888320
 H        -0.469392         0.164005        -0.802653
 H         2.279131         1.830004        -0.290945
 H         2.209985        -0.691076         2.180416
 H         3.717932        -2.615479         0.961730
 H         2.962271        -2.812077        -1.523140
 H         4.389647        -0.066275        -0.750438
 H         4.223272        -0.658731        -2.456845
 H         0.720159         0.298127        -2.254998
