19
Iteration:  4478
 C         0.038496        -0.226362         0.061811
 C         1.601591        -0.014892         0.033881
 O         1.714518         1.339977         0.376067
 C         2.312848        -0.963814         1.015790
 C         2.983731        -1.903198         0.493856
 C         2.981295        -1.847049        -0.960001
 C         3.681769        -0.590587        -1.494491
 C         2.214627        -0.501547        -1.281744
 O         1.558860        -0.218813        -2.568209
 H        -0.246574        -1.296019         0.002989
 H        -0.228944         0.076668         0.968994
 H        -0.413492         0.540714        -0.664017
 H         2.324161         1.686056        -0.228658
 H         2.095924        -0.786601         2.145841
 H         3.396548        -2.816472         1.048531
 H         3.138684        -2.650728        -1.695167
 H         4.456311        -0.346820        -0.761511
 H         3.883930        -0.786069        -2.592206
 H         0.563451        -0.169107        -2.362277
