19
Iteration:  3636charge 0 multiplicity 1
 C         0.116330        -0.220180         0.000169
 C         1.597514        -0.018615        -0.000843
 O         1.815179         1.393100         0.045168
 C         2.186207        -0.987467         1.099686
 C         2.844596        -1.954333         0.498517
 C         3.006692        -1.738459        -0.936595
 C         3.749003        -0.426953        -1.364843
 C         2.231597        -0.568856        -1.237881
 O         1.496909        -0.422951        -2.375574
 H        -0.543767         0.516965        -0.364346
 H        -0.296712        -1.162933        -0.496360
 H        -0.220876        -0.374641         1.010345
 H         2.695711         1.593204        -0.415493
 H         1.905635        -0.824143         2.104092
 H         3.203989        -2.939381         0.977560
 H         2.896032        -2.455919        -1.786780
 H         4.500719        -0.150805        -0.686016
 H         4.253552        -0.310890        -2.374846
 H         0.943357         0.377390        -2.164352
