19
Iteration:  4602charge 0 multiplicity 1
 C        -0.015168         0.085965        -0.035694
 C         1.528511        -0.030655         0.014957
 O         2.075272         1.140458         0.506541
 C         2.077500        -1.063898         0.945811
 C         2.990216        -1.794114         0.458130
 C         3.154433        -1.639536        -1.014470
 C         3.663742        -0.325746        -1.455819
 C         2.156392        -0.571746        -1.371132
 O         1.332957        -0.710796        -2.461257
 H        -0.540018        -0.830803         0.013798
 H        -0.285775         0.822349         0.807472
 H        -0.210720         0.545953        -0.938098
 H         2.671833         1.053849         1.189129
 H         1.815280        -0.876752         1.970604
 H         3.681715        -2.470556         0.935098
 H         3.511102        -2.512182        -1.598869
 H         4.192672         0.377071        -0.837233
 H         3.847079        -0.235892        -2.527455
 H         1.229364         0.121805        -3.020327
