19
Iteration:  3331charge 0 multiplicity 1
 C        -0.041548        -0.118351         0.285043
 C         1.447125         0.051894         0.020709
 O         1.832637         1.358354         0.012979
 C         2.308815        -0.973097         1.034583
 C         3.007555        -2.043095         0.482868
 C         2.965414        -1.777388        -1.027313
 C         3.686612        -0.456072        -1.302221
 C         2.182150        -0.573723        -1.264748
 O         1.643600        -0.445473        -2.583397
 H        -0.709722         0.571038        -0.115313
 H        -0.454218        -1.184597        -0.177561
 H        -0.296995        -0.230960         1.388504
 H         1.414614         1.832373         0.692556
 H         2.298485        -0.718436         2.100270
 H         3.579591        -2.754222         0.975411
 H         2.920909        -2.702017        -1.717561
 H         4.328693        -0.058706        -0.545009
 H         4.096579        -0.388262        -2.391660
 H         1.649142         0.513399        -2.630254
