19
Iteration:  2941charge 0 multiplicity 1
 C         0.149295        -0.205681        -0.097773
 C         1.643825         0.016483        -0.002673
 O         1.825928         1.379973         0.332967
 C         2.148358        -0.946874         1.131976
 C         2.833970        -1.949381         0.548470
 C         2.980289        -1.700275        -0.985589
 C         3.729670        -0.507805        -1.487060
 C         2.253143        -0.365295        -1.319964
 O         1.419885        -0.615335        -2.393874
 H        -0.164261         0.581811        -0.731338
 H        -0.114136        -1.277354        -0.531032
 H        -0.340564        -0.289504         0.857730
 H         2.560303         1.694292        -0.195469
 H         2.172514        -0.812125         2.246249
 H         3.481339        -2.593053         1.141137
 H         3.062251        -2.426211        -1.715869
 H         4.452038         0.096797        -0.993859
 H         4.028957        -0.730775        -2.569160
 H         1.172419         0.236189        -2.755314
