19
Iteration:  4298
 C         0.032062         0.108626        -0.012731
 C         1.459839        -0.072668         0.019486
 O         2.017225         1.231057         0.410992
 C         1.996619        -1.166771         0.922010
 C         2.994927        -1.902107         0.395485
 C         3.162939        -1.588920        -1.024299
 C         3.773958        -0.249314        -1.383405
 C         2.190652        -0.503596        -1.264594
 O         1.381229        -0.761256        -2.416732
 H        -0.429024        -0.780385         0.197440
 H        -0.315945         0.750636         0.832247
 H        -0.462922         0.447949        -0.819243
 H         2.832875         1.368339        -0.017082
 H         1.623577        -1.064683         1.948863
 H         3.595176        -2.625305         0.902524
 H         3.196018        -2.454751        -1.722312
 H         4.469390         0.207409        -0.758125
 H         3.990002        -0.107629        -2.412616
 H         0.908734         0.033415        -2.660434
