19
Iteration:  4025charge 0 multiplicity 1
 C        -0.001505         0.159650         0.068773
 C         1.506839        -0.079047        -0.040926
 O         1.933105         1.285862         0.521656
 C         1.990066        -1.070483         0.930996
 C         2.966312        -1.816196         0.490861
 C         3.201723        -1.691675        -1.014198
 C         3.690453        -0.276710        -1.510539
 C         2.202941        -0.591303        -1.361690
 O         1.478656        -0.853864        -2.489162
 H        -0.318578         1.096281        -0.457180
 H        -0.641885        -0.718324        -0.098655
 H        -0.144353         0.411340         1.102948
 H         2.942272         1.269496         0.553826
 H         1.636122        -0.951342         1.974258
 H         3.767292        -2.415557         1.030676
 H         3.242634        -2.583813        -1.729574
 H         3.976160         0.502877        -0.792170
 H         4.052424        -0.296588        -2.580985
 H         1.330046        -0.046376        -3.062138
