19
Iteration:    69
 C        -0.027989        -0.062406        -0.111937
 C         1.575227        -0.011918         0.066078
 O         2.038942         1.350276         0.238959
 C         2.150572        -1.059601         1.131046
 C         2.959223        -2.030089         0.540541
 C         2.983576        -1.734427        -0.923194
 C         3.708809        -0.393346        -1.391714
 C         2.227624        -0.551098        -1.298995
 O         1.419491        -0.453757        -2.458297
 H        -0.684166         0.673193         0.466226
 H        -0.327766         0.123738        -1.168715
 H        -0.412445        -1.003486         0.136175
 H         1.275073         1.852333        -0.204521
 H         2.129190        -0.939186         2.238001
 H         3.360688        -2.899991         1.120074
 H         3.148897        -2.593588        -1.611630
 H         4.279754         0.263302        -0.713041
 H         4.196497        -0.564846        -2.362228
 H         1.894705        -0.331579        -3.306836
