19
Iteration:  3201
 C         0.029134        -0.101589         0.152771
 C         1.542414        -0.019379        -0.017637
 O         2.015879         1.356029         0.218023
 C         2.147595        -0.948240         1.035817
 C         2.871847        -1.903406         0.508403
 C         3.140636        -1.748381        -1.013528
 C         3.661828        -0.408001        -1.336209
 C         2.219661        -0.588626        -1.309125
 O         1.485836        -0.602718        -2.578801
 H        -0.453768         0.697744        -0.356517
 H        -0.458612        -1.106993        -0.195984
 H        -0.192990         0.015553         1.210240
 H         1.148643         1.891968         0.103891
 H         1.713392        -0.715251         2.008497
 H         3.349523        -2.740693         1.108995
 H         3.301501        -2.682128        -1.666728
 H         4.216022         0.054952        -0.485603
 H         4.011423        -0.358854        -2.380941
 H         1.108418         0.304159        -2.610482
