19
Iteration:  4887charge 0 multiplicity 1
 C        -0.062309        -0.083625        -0.036954
 C         1.536081        -0.021695        -0.008932
 O         2.062986         1.303883         0.486560
 C         2.111439        -1.009779         1.017754
 C         2.980282        -1.805897         0.450954
 C         3.094159        -1.719899        -1.027717
 C         3.665342        -0.360838        -1.440116
 C         2.201161        -0.459947        -1.383499
 O         1.352679        -0.699900        -2.426328
 H        -0.544726        -0.226556        -1.060849
 H        -0.472894        -0.879120         0.682076
 H        -0.439429         0.914427         0.305597
 H         3.004118         1.211807         0.578399
 H         1.987533        -1.008274         2.051520
 H         3.463246        -2.637393         0.926861
 H         3.218799        -2.647517        -1.645452
 H         4.372926         0.305841        -0.827459
 H         4.081671        -0.385315        -2.499729
 H         1.474401         0.033061        -3.108119
