19
Iteration:  2342
 C         0.060847        -0.012479        -0.141921
 C         1.589788        -0.025773         0.038396
 O         1.919497         1.311172         0.492536
 C         2.160030        -0.951336         1.035561
 C         2.994430        -1.835655         0.492605
 C         3.006329        -1.783597        -0.972623
 C         3.720591        -0.512499        -1.551326
 C         2.240638        -0.544896        -1.314106
 O         1.331449        -0.609451        -2.438840
 H        -0.148850         0.534480        -1.110630
 H        -0.405879        -0.952492        -0.170038
 H        -0.533702         0.655485         0.568510
 H         2.782745         1.308442         0.810206
 H         2.236294        -0.557643         2.046224
 H         3.468646        -2.608877         1.114866
 H         2.918917        -2.785614        -1.533368
 H         4.340185         0.124081        -0.873616
 H         3.988328        -0.380618        -2.623545
 H         1.176341         0.229766        -2.901904
