19
Iteration:  1735
 C        -0.006603        -0.068793        -0.045217
 C         1.562996         0.036073         0.004687
 O         1.942646         1.349411         0.379843
 C         2.183013        -0.895958         1.072982
 C         2.938184        -1.908313         0.532919
 C         2.952562        -1.831906        -0.993801
 C         3.816923        -0.599759        -1.438508
 C         2.221761        -0.591808        -1.337354
 O         1.430880        -0.480326        -2.558060
 H        -0.472503         0.116077        -1.035600
 H        -0.359422        -0.994707         0.451747
 H        -0.312630         0.789364         0.540376
 H         1.481530         1.507603         1.226021
 H         2.023205        -0.746816         2.119028
 H         3.710323        -2.369877         1.155036
 H         2.929139        -2.722424        -1.618720
 H         4.393213         0.047656        -0.687366
 H         4.068781        -0.723965        -2.531020
 H         1.652727         0.321944        -3.103475
