19
Iteration:  3770charge 0 multiplicity 1
 C        -0.041452        -0.093248        -0.012466
 C         1.545144        -0.018392         0.027450
 O         2.125772         1.344881         0.185767
 C         2.099990        -1.034672         1.082835
 C         2.929061        -2.048197         0.522099
 C         3.122311        -1.674674        -0.910083
 C         3.600365        -0.268680        -1.393426
 C         2.163488        -0.446208        -1.332590
 O         1.468460        -0.710978        -2.537797
 H        -0.329101         0.850845        -0.385247
 H        -0.304978        -0.941077        -0.686710
 H        -0.391796        -0.150968         1.032030
 H         1.813180         1.791160         1.063898
 H         1.974717        -0.896138         2.176607
 H         3.550477        -2.655662         1.191641
 H         3.184560        -2.410639        -1.698927
 H         4.003979         0.349153        -0.611413
 H         4.202373        -0.360347        -2.344750
 H         0.885787         0.088122        -2.703653
