19
Iteration:  1399charge 0 multiplicity 1
 C        -0.119199         0.027583         0.124632
 C         1.542216        -0.055181         0.029582
 O         2.090316         1.277337         0.145685
 C         2.094000        -1.004990         1.024980
 C         2.938010        -1.975222         0.535361
 C         3.046314        -1.792427        -0.984484
 C         3.666541        -0.372976        -1.304790
 C         2.124110        -0.696891        -1.251440
 O         1.608836        -0.461307        -2.565126
 H        -0.646738         0.648000        -0.620064
 H        -0.532100        -0.977204        -0.121575
 H        -0.484838         0.378817         1.087464
 H         1.324876         1.780612         0.060880
 H         1.999898        -0.868489         2.070158
 H         3.495540        -2.681519         1.090534
 H         3.205447        -2.520835        -1.791057
 H         4.273130         0.176782        -0.613180
 H         3.949958        -0.174930        -2.416895
 H         1.850906         0.420636        -2.907049
