19
Iteration:  1318charge 0 multiplicity 1
 C         0.125880        -0.247676        -0.231714
 C         1.566224        -0.039073         0.051600
 O         1.928700         1.373849         0.250660
 C         2.111664        -0.869527         1.117902
 C         2.828409        -1.904463         0.590792
 C         2.950870        -1.772184        -0.882047
 C         3.809446        -0.561595        -1.533226
 C         2.215049        -0.515920        -1.267097
 O         1.440192        -0.414307        -2.423371
 H        -0.065349         0.475782        -1.033882
 H        -0.024766        -1.329715        -0.423815
 H        -0.583483        -0.015658         0.625264
 H         2.050192         1.546153         1.191623
 H         2.215303        -0.561891         2.210739
 H         3.392813        -2.801754         1.017440
 H         2.769781        -2.648149        -1.515665
 H         4.435223         0.049870        -0.895597
 H         4.062763        -0.792031        -2.557082
 H         1.665842         0.461876        -2.792160
