19
Iteration:  1554charge 0 multiplicity 1
 C         0.051658        -0.107919        -0.016973
 C         1.628156        -0.009805         0.059137
 O         1.960502         1.348167         0.102438
 C         2.211807        -0.997427         1.103335
 C         2.769580        -2.046183         0.466627
 C         3.024988        -1.765663        -0.953639
 C         3.759423        -0.463941        -1.338716
 C         2.228867        -0.552634        -1.194049
 O         1.418909        -0.369514        -2.445306
 H        -0.352711         0.221814        -0.990131
 H        -0.237141        -1.113241         0.121668
 H        -0.366370         0.514380         0.825604
 H         1.195859         1.943807        -0.238526
 H         1.841386        -1.122280         2.148820
 H         3.433371        -2.800978         0.922602
 H         2.915872        -2.615053        -1.625371
 H         4.391899        -0.145682        -0.505821
 H         4.117090        -0.341898        -2.314376
 H         2.014439        -0.064910        -3.147340
