19
Iteration:  3231charge 0 multiplicity 1
 C        -0.029499        -0.123408         0.040506
 C         1.514997        -0.028524        -0.027403
 O         1.869817         1.340329         0.305603
 C         2.236396        -0.901052         1.089420
 C         3.058298        -1.878359         0.549375
 C         2.955496        -1.771493        -0.934399
 C         3.723816        -0.604374        -1.448857
 C         2.237718        -0.529824        -1.300174
 O         1.498233        -0.486248        -2.599593
 H        -0.723174         0.517186        -0.553687
 H        -0.520082        -1.136704        -0.058214
 H        -0.242024         0.156147         1.135145
 H         1.087293         1.794362         0.612947
 H         2.068990        -0.598821         2.131494
 H         3.852621        -2.527830         1.081184
 H         2.936045        -2.661716        -1.575226
 H         4.608111        -0.063379        -0.924495
 H         4.039041        -0.629421        -2.469994
 H         1.756195         0.333988        -3.084033
