19
Iteration:  1795
 C         0.069234        -0.145487        -0.015417
 C         1.632715         0.001570         0.007578
 O         2.012385         1.327770         0.243215
 C         2.169224        -0.946490         1.029413
 C         2.888195        -1.932652         0.540032
 C         3.030862        -1.815891        -0.974757
 C         3.708338        -0.494857        -1.308087
 C         2.218889        -0.551405        -1.338566
 O         1.311902        -0.407019        -2.426929
 H        -0.368734         0.697589        -0.530938
 H        -0.319301        -1.039228        -0.561796
 H        -0.367535        -0.253494         0.996919
 H         1.842879         1.946733        -0.554619
 H         2.048716        -0.593755         2.088857
 H         3.027365        -2.802910         1.140236
 H         3.100213        -2.709368        -1.579737
 H         4.335956         0.154592        -0.641915
 H         4.179277        -0.466350        -2.245404
 H         1.837751        -0.234174        -3.230026
