19
Iteration:   963
 C        -0.088851        -0.064545        -0.190924
 C         1.522067        -0.042799        -0.021640
 O         1.924001         1.323302         0.310982
 C         2.088211        -0.902555         1.159432
 C         2.876437        -1.943093         0.614130
 C         3.097654        -1.865779        -0.907640
 C         3.746174        -0.506614        -1.452949
 C         2.278152        -0.531507        -1.287689
 O         1.462072        -0.407297        -2.425897
 H        -0.170338         0.986448        -0.619214
 H        -0.340243        -0.841309        -0.984138
 H        -0.452077        -0.364076         0.781271
 H         2.656840         1.571021        -0.183670
 H         1.958577        -0.678987         2.244120
 H         3.344288        -2.770501         1.131932
 H         3.061172        -2.597474        -1.703290
 H         4.643981        -0.044594        -0.877556
 H         4.109394        -0.709527        -2.430663
 H         1.878993        -0.113515        -3.241881
