19
Iteration:   594
 C        -0.182736         0.035946         0.007469
 C         1.411765        -0.140171        -0.066334
 O         2.074043         1.225338         0.194548
 C         2.028039        -0.992296         1.063662
 C         2.958435        -1.827972         0.540891
 C         3.165079        -1.785070        -0.931699
 C         3.765521        -0.460398        -1.346819
 C         2.212924        -0.601033        -1.265347
 O         1.627052        -0.430946        -2.578581
 H        -0.371506         0.920682         0.630626
 H        -0.589919         0.260831        -0.975620
 H        -0.725836        -0.829129         0.413840
 H         1.315031         1.861708         0.477981
 H         1.825791        -0.889716         2.115626
 H         3.628933        -2.418855         1.126129
 H         3.228949        -2.764505        -1.324132
 H         4.405696        -0.002023        -0.494945
 H         4.191751        -0.304612        -2.328375
 H         0.697544        -0.490048        -2.314187
