19
Iteration:  1257charge 0 multiplicity 1
 C        -0.002989        -0.083021         0.084601
 C         1.538635        -0.002825        -0.011470
 O         1.801817         1.372472         0.221872
 C         2.109023        -0.958761         1.066337
 C         2.866339        -1.959552         0.531670
 C         2.936509        -1.775662        -0.946144
 C         3.757481        -0.500737        -1.350567
 C         2.293505        -0.519765        -1.286444
 O         1.656884        -0.540081        -2.581059
 H        -0.400206         0.752993        -0.519307
 H        -0.363960        -1.018433        -0.421111
 H        -0.216747         0.055464         1.103641
 H         2.692354         1.582891         0.048372
 H         1.800401        -0.720022         2.101524
 H         3.360908        -2.839067         1.037799
 H         2.763298        -2.668299        -1.540097
 H         4.624059        -0.030021        -0.762614
 H         3.957230        -0.455267        -2.406618
 H         1.574705         0.430405        -2.735700
