19
Iteration:  4845
 C         0.056760        -0.028256         0.076587
 C         1.605563        -0.134747         0.053252
 O         1.830897         1.325574         0.286153
 C         2.212370        -1.025434         1.110946
 C         2.912082        -1.934571         0.423812
 C         3.066975        -1.711730        -0.972002
 C         3.687342        -0.405129        -1.439795
 C         2.246668        -0.546775        -1.360059
 O         1.389371        -0.510389        -2.457855
 H        -0.486727        -0.364186        -0.817920
 H        -0.252119        -0.584242         0.852263
 H        -0.285442         0.981669         0.313260
 H         2.764922         1.402557         0.417079
 H         1.842007        -0.923551         2.060330
 H         3.262749        -2.877499         0.728572
 H         3.307041        -2.481120        -1.726290
 H         4.139055         0.485749        -0.851361
 H         4.137792        -0.382996        -2.495554
 H         1.700709        -0.055643        -3.223984
