19
Iteration:  1278
 C        -0.044130        -0.074755        -0.048541
 C         1.449499        -0.068227         0.028353
 O         1.800007         1.379197         0.282410
 C         2.199021        -0.868099         1.040461
 C         2.932499        -1.871170         0.516052
 C         2.987624        -1.816012        -0.972766
 C         3.799590        -0.681616        -1.422236
 C         2.227131        -0.586385        -1.294184
 O         1.572002        -0.417707        -2.513953
 H        -0.524436         0.751362        -0.618534
 H        -0.507442        -1.010837        -0.528075
 H        -0.403147         0.073333         0.939840
 H         2.509996         1.439579         0.964731
 H         2.228066        -0.588278         2.126592
 H         3.510070        -2.485987         1.284478
 H         2.977254        -2.769489        -1.508928
 H         4.441841        -0.122277        -0.608289
 H         4.357950        -0.639658        -2.346010
 H         1.949620         0.371030        -2.956146
