19
Iteration:   161charge 0 multiplicity 1
 C        -0.063847        -0.109029         0.002856
 C         1.550928         0.036151        -0.125239
 O         1.897522         1.434306         0.404344
 C         2.224332        -0.893968         0.961752
 C         2.837984        -1.948866         0.549224
 C         2.941245        -1.826171        -0.932439
 C         3.789013        -0.621594        -1.344195
 C         2.246811        -0.485255        -1.366816
 O         1.602890        -0.585551        -2.522047
 H        -0.301208        -0.631978         0.915856
 H        -0.386911         0.912669         0.195964
 H        -0.601205        -0.671069        -0.890634
 H         1.433646         2.086947        -0.092011
 H         2.121901        -0.700924         2.019398
 H         3.523362        -2.548843         1.139841
 H         2.986319        -2.680119        -1.586893
 H         4.384237        -0.097971        -0.513316
 H         4.322894        -0.566513        -2.260600
 H         1.313696         0.305546        -2.769578
