19
Iteration:  1505charge 0 multiplicity 1
 C        -0.023979        -0.115002         0.116943
 C         1.490432        -0.044053         0.004156
 O         1.986709         1.311628         0.348223
 C         2.109470        -0.870382         1.003167
 C         2.923551        -1.889266         0.521919
 C         2.956659        -1.812359        -0.955628
 C         3.813017        -0.577626        -1.375709
 C         2.186105        -0.614594        -1.296605
 O         1.537835        -0.409531        -2.595912
 H        -0.406331         0.736829        -0.515168
 H        -0.381705        -1.139587        -0.408087
 H        -0.355503        -0.020436         1.173825
 H         1.814532         1.845626        -0.387502
 H         2.090157        -0.430252         1.950715
 H         3.259218        -2.735898         1.066347
 H         3.091080        -2.555558        -1.752665
 H         4.448183        -0.056432        -0.694469
 H         4.084655        -0.692873        -2.513479
 H         1.617934         0.497941        -2.952449
