19
Iteration:  3321charge 0 multiplicity 1
 C        -0.025668        -0.267043         0.257575
 C         1.492427        -0.012598         0.071634
 O         1.862959         1.435313         0.014190
 C         2.288498        -0.925296         1.016947
 C         2.942875        -1.951018         0.469987
 C         2.964442        -1.836203        -1.000680
 C         3.645097        -0.528781        -1.350954
 C         2.178957        -0.532354        -1.251084
 O         1.675547        -0.408889        -2.554421
 H        -0.464802         0.610994        -0.127411
 H        -0.360294        -1.280627        -0.291205
 H        -0.206472        -0.242196         1.346768
 H         1.579594         1.937664         0.731611
 H         2.160678        -0.745482         2.092268
 H         3.410784        -2.716833         0.969885
 H         2.940303        -2.686548        -1.732094
 H         4.206580        -0.012560        -0.605190
 H         3.996619        -0.344262        -2.410484
 H         1.403782         0.504949        -2.689251
