19
Iteration:  3035charge 0 multiplicity 1
 C         0.168467        -0.260448         0.139021
 C         1.616612         0.036059         0.029262
 O         1.957409         1.478715         0.037318
 C         2.186520        -0.990564         1.004665
 C         2.754100        -2.038092         0.466614
 C         3.055328        -1.726147        -0.990973
 C         3.697722        -0.414584        -1.315469
 C         2.202352        -0.528510        -1.236591
 O         1.456585        -0.515301        -2.433407
 H        -0.445714         0.167453        -0.613134
 H         0.081471        -1.382195         0.097076
 H        -0.365039        -0.283070         1.160424
 H         1.096956         1.966948         0.054833
 H         2.257523        -0.777577         2.095438
 H         3.098823        -2.859289         1.095364
 H         3.044030        -2.436498        -1.823468
 H         4.290528        -0.050138        -0.545647
 H         4.031647        -0.306853        -2.420550
 H         1.235600         0.425416        -2.710576
