19
Iteration:  4142
 C         0.023438        -0.475358         0.179167
 C         1.606370         0.052007         0.032012
 O         1.677140         1.463108         0.237261
 C         2.345348        -0.818709         1.052289
 C         2.862039        -1.948202         0.410365
 C         2.822914        -1.820292        -1.043321
 C         3.778283        -0.614125        -1.425662
 C         2.175501        -0.509934        -1.275100
 O         1.649853        -0.305437        -2.506437
 H        -0.158453        -1.319557        -0.589265
 H        -0.097083        -0.616586         1.205656
 H        -0.527922         0.446641        -0.214574
 H         2.669121         1.744173         0.331371
 H         2.285865        -0.467146         2.117970
 H         3.224085        -2.867781         0.954677
 H         2.557232        -2.685104        -1.728037
 H         4.454589        -0.445408        -0.515465
 H         4.147008        -0.514565        -2.515613
 H         1.953251         0.636127        -2.684108
