19
Iteration:  4281
 C        -0.044821         0.074946         0.111437
 C         1.588006        -0.063512         0.060846
 O         1.991589         1.271188         0.413252
 C         1.993177        -1.145971         1.045772
 C         2.950435        -1.921240         0.396159
 C         3.113565        -1.618578        -1.052559
 C         3.664298        -0.242879        -1.472881
 C         2.221639        -0.501595        -1.332382
 O         1.486295        -0.748636        -2.470228
 H        -0.645418        -0.885345         0.478196
 H        -0.191070         1.012969         0.574002
 H        -0.306351         0.205875        -1.063921
 H         2.724071         1.455154        -0.099129
 H         1.740686        -1.382082         2.070261
 H         3.452903        -2.748346         0.954341
 H         3.173540        -2.401142        -1.846646
 H         4.022965         0.288839        -0.524023
 H         4.198388        -0.136501        -2.465913
 H         1.463249         0.053498        -3.017160
