19
Iteration:  2889
 C        -0.006110        -0.016267         0.170254
 C         1.541321        -0.095024        -0.016200
 O         1.917627         1.308255         0.169999
 C         2.131978        -1.055104         1.025651
 C         2.946067        -1.939859         0.491585
 C         3.006395        -1.694648        -0.956645
 C         3.727645        -0.297645        -1.312894
 C         2.132954        -0.565933        -1.260094
 O         1.508247        -0.632798        -2.598773
 H        -0.483965         0.662653        -0.558434
 H        -0.533209        -0.981181         0.154578
 H        -0.138988         0.335955         1.167870
 H         2.824070         1.422793        -0.273067
 H         2.264349        -0.760334         2.088060
 H         3.685634        -2.570788         0.973464
 H         3.106256        -2.473347        -1.643559
 H         4.159230         0.183818        -0.440922
 H         4.229018        -0.169001        -2.340050
 H         1.418228         0.312441        -2.757049
