19
Iteration:   597
 C        -0.155918         0.029706         0.022360
 C         1.421844        -0.118040        -0.061769
 O         2.064167         1.231216         0.193514
 C         2.037163        -0.997548         1.047091
 C         2.944694        -1.843843         0.531975
 C         3.171857        -1.780952        -0.912855
 C         3.770589        -0.449737        -1.311566
 C         2.181002        -0.622349        -1.305683
 O         1.634998        -0.434644        -2.578225
 H        -0.549528         0.900681         0.673042
 H        -0.596163         0.334150        -0.961993
 H        -0.748864        -0.747295         0.404177
 H         1.345031         1.804111         0.541189
 H         1.821661        -0.796502         2.066266
 H         3.704792        -2.386827         1.084106
 H         3.254113        -2.790061        -1.388514
 H         4.340715         0.056191        -0.531853
 H         4.235132        -0.425531        -2.355943
 H         0.684770        -0.498940        -2.284873
