19
Iteration:  4835
 C        -0.006641        -0.068208         0.075920
 C         1.559933        -0.074201        -0.001676
 O         1.843631         1.294757         0.267390
 C         2.274128        -0.949367         1.046146
 C         2.954561        -2.015576         0.484365
 C         3.090238        -1.718130        -1.001561
 C         3.744589        -0.419888        -1.420290
 C         2.175631        -0.577852        -1.343423
 O         1.351586        -0.441566        -2.442919
 H        -0.479463        -0.473953        -0.817779
 H        -0.343710        -0.589347         0.863966
 H        -0.278171         0.990706         0.196872
 H         2.747160         1.403351         0.316721
 H         1.927601        -0.897581         2.040187
 H         3.390911        -2.879547         0.927007
 H         3.262686        -2.596925        -1.629320
 H         4.150581         0.267675        -0.613120
 H         4.305177        -0.472329        -2.392319
 H         1.789079         0.281320        -2.940444
