19
Iteration:  1691
 C         0.041265        -0.102111         0.104571
 C         1.566921        -0.006119         0.012536
 O         1.985999         1.460216         0.117143
 C         2.138323        -0.982967         1.068623
 C         2.781254        -2.001135         0.460678
 C         2.950716        -1.817891        -0.976948
 C         3.721419        -0.345618        -1.353877
 C         2.230805        -0.615872        -1.253423
 O         1.554855        -0.556309        -2.523946
 H        -0.490360         0.358880        -0.745749
 H        -0.082279        -1.194303        -0.105414
 H        -0.444453         0.235446         0.982738
 H         2.731485         1.519101         0.716819
 H         1.894147        -0.802493         2.133775
 H         3.059352        -2.897948         0.964747
 H         3.139506        -2.584729        -1.709451
 H         4.349796         0.094303        -0.486221
 H         3.861642        -0.307010        -2.421431
 H         1.277060         0.384896        -2.360415
