19
Iteration:  4940
 C        -0.055974         0.047846         0.073529
 C         1.463430        -0.091409         0.080204
 O         1.920723         1.331979         0.257399
 C         2.103156        -1.033696         1.060554
 C         3.020552        -1.895708         0.451010
 C         3.188371        -1.740911        -1.040258
 C         3.734018        -0.428718        -1.493152
 C         2.151817        -0.594153        -1.256899
 O         1.462263        -0.558123        -2.450177
 H        -0.365853         0.274638        -0.998608
 H        -0.527794        -1.010998         0.184108
 H        -0.570762         0.794914         0.708719
 H         2.911220         1.315755         0.257774
 H         2.085419        -1.043049         2.108999
 H         3.665599        -2.549528         1.050733
 H         3.315440        -2.623643        -1.734951
 H         4.447648         0.128992        -0.870580
 H         3.934386        -0.227786        -2.554623
 H         0.825143         0.202957        -2.349101
