19
Iteration:  1270
 C        -0.076932        -0.062537         0.002612
 C         1.545321        -0.036800        -0.000068
 O         1.773133         1.342890         0.248528
 C         2.150513        -0.885367         1.120536
 C         2.850416        -1.874542         0.538708
 C         2.993837        -1.882930        -0.997303
 C         3.774916        -0.605189        -1.447843
 C         2.269789        -0.512187        -1.297522
 O         1.643985        -0.462676        -2.508443
 H        -0.473196         0.812771        -0.510421
 H        -0.510838        -0.991939        -0.328330
 H        -0.466577        -0.004953         1.020463
 H         2.681911         1.357876         0.699355
 H         2.252291        -0.666854         2.143925
 H         3.580811        -2.398574         1.113867
 H         2.986736        -2.651495        -1.765532
 H         4.318705        -0.183807        -0.574897
 H         4.220019        -0.573433        -2.420509
 H         1.750735         0.337723        -3.035656
