19
Iteration:  1112
 C         0.138756        -0.196845        -0.205459
 C         1.594844         0.080597         0.065517
 O         1.831611         1.478650         0.296943
 C         2.087944        -0.980967         1.071287
 C         2.900699        -1.963650         0.512408
 C         3.004801        -1.854390        -0.950814
 C         3.665990        -0.528839        -1.332321
 C         2.223671        -0.466814        -1.255966
 O         1.462555        -0.515236        -2.457048
 H        -0.256288         0.783381        -0.476868
 H         0.060680        -0.918458        -0.961016
 H        -0.322514        -0.385638         0.780907
 H         2.819566         1.445223         0.165734
 H         1.981592        -0.843230         2.126352
 H         3.397390        -2.786829         0.956558
 H         3.146618        -2.705984        -1.619270
 H         4.398360        -0.038129        -0.646266
 H         4.024165        -0.426487        -2.359631
 H         1.745703         0.204772        -3.036154
