19
Iteration:  4866charge 0 multiplicity 1
 C         0.033434        -0.068214         0.066003
 C         1.553053         0.048048         0.085123
 O         1.959931         1.398431         0.376012
 C         2.095844        -1.083425         0.975816
 C         2.944045        -2.028301         0.493969
 C         3.113665        -1.640821        -1.015374
 C         3.701944        -0.325341        -1.561036
 C         2.126184        -0.530122        -1.269963
 O         1.387209        -0.660083        -2.471802
 H        -0.338832        -0.358910        -0.948920
 H        -0.328973        -0.803313         0.750829
 H        -0.528060         0.850233         0.298751
 H         3.003283         1.319744         0.589554
 H         1.697709        -0.990290         1.938292
 H         3.553940        -2.748965         0.991747
 H         2.995713        -2.478361        -1.743309
 H         4.373329         0.201589        -0.797903
 H         4.224316        -0.170602        -2.564463
 H         2.080329        -0.289021        -3.054688
