19
Iteration:  3041
 C         0.141171        -0.281790         0.101799
 C         1.684305         0.037473         0.040255
 O         1.961108         1.478304         0.056675
 C         2.199294        -0.948756         1.040954
 C         2.749168        -2.077032         0.471961
 C         3.031285        -1.718081        -1.018057
 C         3.702320        -0.408601        -1.292124
 C         2.206543        -0.512254        -1.268060
 O         1.421953        -0.553223        -2.426877
 H        -0.548530         0.288872        -0.616729
 H         0.107219        -1.356796        -0.050139
 H        -0.152420        -0.148148         1.121122
 H         1.054775         1.938724        -0.095525
 H         2.099847        -0.686524         2.077088
 H         3.084961        -3.003889         0.963351
 H         3.095631        -2.410056        -1.904407
 H         4.375052         0.124427        -0.539666
 H         4.133716        -0.216755        -2.240345
 H         1.173540         0.384981        -2.499922
