19
Iteration:   462
 C        -0.040338        -0.110377         0.020413
 C         1.494731        -0.043667        -0.054135
 O         1.854952         1.337327         0.099563
 C         2.099328        -0.944167         1.020935
 C         2.925202        -1.929260         0.624361
 C         3.056742        -1.875215        -0.884437
 C         3.701600        -0.514077        -1.293262
 C         2.233735        -0.597525        -1.343221
 O         1.598507        -0.300131        -2.569628
 H        -0.394423        -0.721498         0.768809
 H        -0.262365         0.891715         0.196215
 H        -0.289215        -0.667510        -0.929570
 H         2.821443         1.271903         0.450510
 H         2.280835        -0.518558         2.059946
 H         3.703633        -2.221446         1.378388
 H         3.133157        -2.937525        -1.232220
 H         4.240168        -0.084983        -0.475877
 H         4.246664        -0.674082        -2.302114
 H         0.723083         0.051311        -2.280053
