19
Iteration:  1194
 C         0.028822        -0.022289        -0.141717
 C         1.561950        -0.091192         0.027363
 O         1.941197         1.315705         0.222315
 C         2.078978        -0.991040         1.106530
 C         2.865276        -1.956373         0.508246
 C         3.102414        -1.742214        -0.952716
 C         3.689717        -0.423929        -1.298338
 C         2.227553        -0.531175        -1.274352
 O         1.492201        -0.513352        -2.483596
 H        -0.235442         0.350482        -1.141210
 H        -0.415393        -1.054434        -0.086665
 H        -0.519754         0.499363         0.684684
 H         2.809277         1.358157        -0.134193
 H         1.892563        -0.861353         2.196761
 H         3.472056        -2.730754         1.052924
 H         3.162449        -2.524751        -1.709279
 H         4.133659         0.087799        -0.405631
 H         4.120671        -0.440739        -2.264227
 H         1.103843         0.381883        -2.495256
