19
Iteration:  4978charge 0 multiplicity 1
 C         0.122103        -0.240981         0.135336
 C         1.621059         0.040113         0.048817
 O         1.884688         1.456971         0.263675
 C         2.230412        -0.924589         1.036414
 C         2.867126        -1.996254         0.499650
 C         3.038132        -1.759117        -1.004801
 C         3.667082        -0.457205        -1.326147
 C         2.157802        -0.545144        -1.373152
 O         1.384138        -0.530696        -2.561016
 H        -0.376687         0.542694        -0.391996
 H        -0.026970        -1.148932        -0.373910
 H        -0.271575        -0.327246         1.142421
 H         2.651696         1.598210        -0.204183
 H         2.099703        -0.640015         2.108516
 H         3.283371        -2.784599         1.139526
 H         3.108602        -2.604019        -1.675950
 H         4.101944         0.169748        -0.536867
 H         4.122870        -0.419520        -2.312064
 H         1.667706         0.201357        -3.114960
