19
Iteration:  3256
 C         0.123343        -0.244210        -0.139994
 C         1.569585         0.008475         0.134449
 O         1.825072         1.414358         0.233631
 C         2.270350        -0.873765         1.108967
 C         2.990748        -1.867836         0.498788
 C         2.892631        -1.802081        -0.965994
 C         3.690445        -0.625307        -1.559952
 C         2.253894        -0.540156        -1.206086
 O         1.454188        -0.413356        -2.404578
 H        -0.266291         0.187195        -0.976108
 H        -0.096577        -1.389304        -0.232960
 H        -0.542717         0.074041         0.645257
 H         1.151571         1.876454         0.834087
 H         2.255238        -0.766248         2.196137
 H         3.479276        -2.589425         1.145339
 H         2.711931        -2.808584        -1.518995
 H         4.358675        -0.060824        -0.953994
 H         4.160551        -0.534006        -2.571607
 H         1.943365         0.147493        -3.053906
