19
Iteration:   777charge 0 multiplicity 1
 C         0.052795        -0.147039        -0.009898
 C         1.682490         0.065307         0.049198
 O         1.812278         1.467843         0.105650
 C         2.116101        -0.858686         1.108677
 C         2.661744        -1.983253         0.440180
 C         3.109183        -1.848705        -0.963531
 C         3.770052        -0.541076        -1.291867
 C         2.297363        -0.599451        -1.289948
 O         1.598516        -0.439116        -2.466410
 H        -0.310766         0.706512         0.595737
 H        -0.583052        -0.212587        -0.936034
 H        -0.277830        -1.138307         0.484101
 H         2.673503         1.779593         0.174964
 H         1.701604        -0.962025         2.096554
 H         2.605498        -2.977078         0.931374
 H         3.356513        -2.674394        -1.653014
 H         4.185743         0.055324        -0.547432
 H         4.167043        -0.378155        -2.363572
 H         0.755585        -0.883235        -2.313565
