19
Iteration:  2971
 C        -0.045163        -0.190816        -0.115122
 C         1.521418        -0.019728        -0.055592
 O         1.781133         1.437774         0.361871
 C         2.266559        -0.890220         1.092567
 C         3.109861        -1.780737         0.562025
 C         2.982361        -1.867246        -0.992355
 C         3.686804        -0.652823        -1.504415
 C         2.145854        -0.631833        -1.272042
 O         1.477679        -0.390235        -2.452924
 H        -0.381117         0.430337        -0.912322
 H        -0.184134        -1.309773        -0.406107
 H        -0.425282         0.183848         0.893862
 H         2.669035         1.348236         0.891244
 H         2.276372        -0.732829         2.196200
 H         3.717629        -2.410338         1.215590
 H         3.035093        -2.780377        -1.590391
 H         4.397005        -0.195329        -0.914805
 H         4.047584        -0.584895        -2.575470
 H         1.796680         0.504035        -2.704400
