19
Iteration:  2957charge 0 multiplicity 1
 C         0.069533        -0.218795        -0.166276
 C         1.554718        -0.014862         0.100624
 O         1.807193         1.389402         0.343143
 C         2.243030        -0.893339         1.101338
 C         3.028684        -1.833933         0.538600
 C         2.958268        -1.757851        -0.928969
 C         3.754599        -0.568890        -1.550455
 C         2.235883        -0.522597        -1.262398
 O         1.408889        -0.496592        -2.451411
 H        -0.355831         0.500614        -0.928064
 H        -0.172554        -1.172458        -0.530178
 H        -0.578748        -0.078348         0.738007
 H         2.727817         1.501295         0.275067
 H         1.932382        -0.745189         2.114204
 H         3.515820        -2.725469         0.961173
 H         2.574787        -2.719652        -1.424049
 H         4.475140        -0.141460        -0.794664
 H         3.935855        -0.571518        -2.595211
 H         1.463065         0.402280        -2.848568
