19
Iteration:   283charge 0 multiplicity 1
 C        -0.081714        -0.113910        -0.011172
 C         1.529020        -0.045938         0.109059
 O         1.878752         1.521795         0.390355
 C         2.079803        -0.964882         1.072560
 C         2.813516        -1.862702         0.402586
 C         2.915343        -1.779646        -0.982604
 C         3.799631        -0.454409        -1.361150
 C         2.269939        -0.619750        -1.302139
 O         1.717867        -0.625510        -2.579818
 H        -0.253129         0.949106         0.359293
 H        -0.382479        -0.266223        -1.072617
 H        -0.497724        -0.927527         0.496617
 H         2.699848         1.518683        -0.276322
 H         2.161389        -1.000064         2.167813
 H         3.197620        -2.724714         0.964973
 H         3.090933        -2.488887        -1.783032
 H         4.427475        -0.061270        -0.663088
 H         4.227417        -0.425939        -2.381740
 H         0.992535        -0.009211        -2.683504
