19
Iteration:  1608charge 0 multiplicity 1
 C         0.056441        -0.183926        -0.129596
 C         1.606560        -0.016923         0.016929
 O         1.985092         1.300948         0.451011
 C         2.106800        -0.911659         1.107616
 C         2.945237        -1.821527         0.593434
 C         2.875811        -1.794807        -0.911410
 C         3.720989        -0.597007        -1.522813
 C         2.266083        -0.470964        -1.338881
 O         1.448632        -0.413499        -2.546595
 H        -0.252601         0.693024        -0.792105
 H        -0.194542        -1.091235        -0.651688
 H        -0.412437        -0.034497         0.923742
 H         1.332979         2.072565         0.175505
 H         2.055586        -0.603974         2.127290
 H         3.294236        -2.691302         1.167544
 H         2.905017        -2.721839        -1.482106
 H         4.273139        -0.100330        -0.729305
 H         4.217153        -0.689663        -2.491625
 H         2.023632        -0.657872        -3.276069
