19
Iteration:  1111charge 0 multiplicity 1
 C         0.142369        -0.193586        -0.206264
 C         1.593263         0.076340         0.059716
 O         1.831609         1.473429         0.286930
 C         2.087291        -0.981775         1.075965
 C         2.898019        -1.968003         0.514618
 C         2.999321        -1.849408        -0.956875
 C         3.668166        -0.521304        -1.337215
 C         2.219828        -0.470302        -1.240993
 O         1.466115        -0.513136        -2.454077
 H        -0.247029         0.786829        -0.474062
 H         0.061956        -0.937995        -0.936016
 H        -0.356945        -0.399980         0.792455
 H         2.849103         1.464976         0.131177
 H         1.980484        -0.819031         2.145607
 H         3.405725        -2.810443         0.969071
 H         3.185667        -2.678287        -1.644483
 H         4.415570        -0.071550        -0.646452
 H         4.013885        -0.422891        -2.327819
 H         1.731050         0.232333        -3.018578
