19
Iteration:  3466charge 0 multiplicity 1
 C        -0.043516         0.010136         0.150218
 C         1.506939        -0.098649         0.003208
 O         1.952926         1.331659         0.226024
 C         2.108913        -1.035143         1.037900
 C         2.976691        -1.880349         0.498562
 C         3.117371        -1.721974        -0.943753
 C         3.633589        -0.276685        -1.433958
 C         2.158057        -0.562243        -1.317461
 O         1.516669        -0.716025        -2.551718
 H        -0.342864         1.102421         0.181577
 H        -0.667391        -0.469432        -0.568197
 H        -0.372238        -0.240039         1.150056
 H         2.927155         1.338025         0.453515
 H         1.801682        -1.053680         2.044962
 H         3.455213        -2.658677         1.149898
 H         3.268131        -2.468070        -1.768121
 H         4.280977         0.251658        -0.819460
 H         4.159737        -0.258204        -2.398338
 H         1.590838         0.182081        -2.940276
