19
Iteration:  1890charge 0 multiplicity 1
 C         0.084536        -0.145662        -0.121660
 C         1.602922        -0.058786        -0.038377
 O         1.929750         1.353547         0.262604
 C         2.265528        -0.880414         1.108658
 C         2.904484        -1.857697         0.523153
 C         2.927414        -1.792553        -0.939043
 C         3.730338        -0.619714        -1.445999
 C         2.242267        -0.533314        -1.311068
 O         1.351510        -0.427139        -2.427890
 H        -0.190323         0.462489        -0.953751
 H        -0.302981        -1.082929        -0.404840
 H        -0.489880         0.097694         0.796091
 H         2.757188         1.425017         0.747508
 H         1.865433        -0.892153         2.157116
 H         3.585140        -2.436734         1.093280
 H         2.789495        -2.630444        -1.590361
 H         4.246146        -0.041676        -0.645315
 H         4.342302        -0.685063        -2.300025
 H         0.920006         0.428498        -2.350091
