19
Iteration:  4985
 C         0.101968        -0.279032         0.103177
 C         1.656589         0.059844         0.079018
 O         1.865054         1.480307         0.259792
 C         2.275028        -0.851308         1.061631
 C         2.841607        -1.998033         0.446283
 C         3.010248        -1.846011        -0.941070
 C         3.687146        -0.427302        -1.348120
 C         2.160210        -0.601213        -1.296489
 O         1.371941        -0.504197        -2.607236
 H        -0.603343         0.561400        -0.287759
 H        -0.044753        -1.187946        -0.519378
 H        -0.256003        -0.432994         1.204545
 H         2.716294         1.737649        -0.167916
 H         2.119972        -0.840391         2.146844
 H         3.328283        -2.844602         0.919152
 H         2.943789        -2.599453        -1.696098
 H         4.227125         0.336410        -0.676059
 H         4.172964        -0.419212        -2.350922
 H         1.915066         0.199284        -3.048912
