19
Iteration:  1885charge 0 multiplicity 1
 C         0.074270        -0.126696        -0.086946
 C         1.592927        -0.036749        -0.049924
 O         1.908992         1.359397         0.259601
 C         2.234801        -0.827298         1.098549
 C         2.909626        -1.899913         0.519338
 C         2.974034        -1.802378        -0.947750
 C         3.757921        -0.604814        -1.426254
 C         2.186317        -0.582621        -1.333135
 O         1.358889        -0.420504        -2.427571
 H        -0.279039         0.597066        -0.893778
 H        -0.277733        -1.128999        -0.521058
 H        -0.354382         0.046779         0.899372
 H         2.733272         1.331913         0.854567
 H         1.931704        -0.902798         2.119621
 H         3.682266        -2.513714         1.067987
 H         2.874164        -2.761725        -1.503319
 H         4.348901        -0.145248        -0.652647
 H         4.286971        -0.709410        -2.441259
 H         1.117596         0.541254        -2.315970
