19
Iteration:   241
 C         0.027495        -0.114571        -0.058846
 C         1.546969        -0.124205        -0.039060
 O         1.863878         1.349299         0.270197
 C         2.074242        -0.911485         1.076167
 C         2.870591        -1.865232         0.559587
 C         3.008864        -1.821185        -0.955082
 C         3.780643        -0.500911        -1.299370
 C         2.249473        -0.569098        -1.371708
 O         1.484888        -0.446819        -2.506690
 H        -0.181470         0.666506         0.732907
 H        -0.368441         0.180204        -1.058673
 H        -0.514344        -0.984831         0.150275
 H         2.809280         1.409101         0.246803
 H         1.793192        -0.649329         2.112363
 H         3.511963        -2.584387         1.081039
 H         3.289956        -2.729992        -1.512464
 H         4.269971         0.123146        -0.612075
 H         4.435271        -0.593354        -2.196763
 H         1.779437         0.408496        -2.884366
