19
Iteration:   722charge 0 multiplicity 1
 C        -0.085651        -0.042795        -0.095549
 C         1.395259        -0.048949        -0.009042
 O         1.890866         1.326357         0.257495
 C         2.166675        -0.891045         1.001790
 C         3.012556        -1.837401         0.584893
 C         2.962846        -1.823254        -0.904107
 C         3.712170        -0.569371        -1.356973
 C         2.196299        -0.606026        -1.233297
 O         1.632644        -0.436948        -2.504352
 H        -0.545789         0.365706         0.826763
 H        -0.402978         0.527584        -1.021019
 H        -0.444934        -1.160265        -0.184048
 H         2.765602         1.198263        -0.105967
 H         1.970998        -0.765581         2.038967
 H         3.568940        -2.579200         1.095034
 H         3.022639        -2.742335        -1.432578
 H         4.313791        -0.173911        -0.545103
 H         4.042509        -0.540627        -2.385949
 H         2.121094         0.276614        -2.968468
