19
Iteration:   120charge 0 multiplicity 1
 C        -0.027863        -0.132493        -0.013264
 C         1.517831        -0.020801         0.028806
 O         1.923872         1.401068         0.154490
 C         2.202160        -0.945809         1.107729
 C         2.857875        -1.944577         0.576942
 C         2.984080        -1.758817        -0.880734
 C         3.733859        -0.519024        -1.417214
 C         2.229212        -0.529771        -1.299067
 O         1.586083        -0.479429        -2.572566
 H        -0.323043        -0.389170         1.015982
 H        -0.572015         0.794006        -0.233808
 H        -0.468411        -0.850245        -0.727834
 H         2.751479         1.289066         0.730776
 H         1.736832        -0.911809         2.068069
 H         3.372641        -2.790482         1.029001
 H         3.060895        -2.673679        -1.482675
 H         4.251564         0.153002        -0.689184
 H         4.185289        -0.653487        -2.359078
 H         0.999310         0.314143        -2.691910
