19
Iteration:  3837
 C         0.078000        -0.275846        -0.046667
 C         1.608680        -0.059957         0.059669
 O         1.837852         1.407498         0.210027
 C         2.285536        -0.916555         1.158696
 C         2.958693        -1.899854         0.588874
 C         2.998295        -1.828726        -0.904333
 C         3.727973        -0.617227        -1.544427
 C         2.241368        -0.526573        -1.275672
 O         1.392825        -0.275095        -2.479507
 H        -0.317398         0.354192        -0.860860
 H        -0.318174        -1.199534        -0.233544
 H        -0.471894         0.129739         0.850222
 H         1.030342         1.835613         0.308640
 H         1.911877        -0.857988         2.150910
 H         3.574212        -2.727236         1.047198
 H         2.983368        -2.678908        -1.599214
 H         4.456337        -0.124643        -0.858779
 H         3.886853        -0.851923        -2.673061
 H         1.909095         0.314894        -3.031829
