19
Iteration:  4131charge 0 multiplicity 1
 C         0.140812        -0.324686         0.145146
 C         1.561613        -0.036158         0.046649
 O         1.662540         1.416394         0.229186
 C         2.335427        -0.849324         1.017008
 C         2.864061        -1.893524         0.469088
 C         2.887515        -1.820975        -1.026896
 C         3.650214        -0.607220        -1.417785
 C         2.249341        -0.501862        -1.258913
 O         1.633868        -0.326160        -2.535096
 H        -0.304147        -1.100865        -0.589663
 H        -0.169321        -0.759083         1.057165
 H        -0.455985         0.652856         0.091944
 H         2.594564         1.509626         0.474243
 H         2.160783        -0.951993         2.115737
 H         3.288419        -2.788239         0.993587
 H         2.747113        -2.691969        -1.735351
 H         4.449869        -0.236838        -0.677185
 H         4.083630        -0.466952        -2.473134
 H         1.703453         0.612797        -2.842481
