19
Iteration:  4149
 C         0.025668        -0.472296         0.156976
 C         1.598505         0.044564         0.025751
 O         1.685466         1.485611         0.236942
 C         2.372318        -0.860173         1.030339
 C         2.824049        -1.954449         0.480931
 C         2.776067        -1.811785        -1.076443
 C         3.838560        -0.661740        -1.394855
 C         2.234338        -0.478723        -1.266220
 O         1.610733        -0.258436        -2.521722
 H         0.026521        -1.548073        -0.185880
 H        -0.318568        -0.671357         1.223923
 H        -0.886497         0.079449        -0.277817
 H         2.597993         1.813565         0.163936
 H         2.474548        -0.386460         2.046080
 H         3.327206        -2.792590         0.904039
 H         2.634874        -2.679916        -1.707906
 H         4.491304        -0.329447        -0.601392
 H         4.109679        -0.614004        -2.434014
 H         1.876767         0.651197        -2.839166
