19
Iteration:   779charge 0 multiplicity 1
 C         0.064465        -0.154779        -0.002272
 C         1.658384         0.042342         0.054111
 O         1.805456         1.475760         0.109459
 C         2.116124        -0.850640         1.107472
 C         2.657284        -1.965151         0.428564
 C         3.102746        -1.850452        -0.959617
 C         3.777155        -0.548079        -1.310133
 C         2.292419        -0.607152        -1.280370
 O         1.605317        -0.435458        -2.463193
 H        -0.304005         0.714146         0.596338
 H        -0.534230        -0.149483        -0.981241
 H        -0.265117        -1.080663         0.486985
 H         2.744024         1.735170         0.145822
 H         1.691565        -0.947819         2.123253
 H         2.654477        -2.978208         0.942469
 H         3.329929        -2.672270        -1.686669
 H         4.216447         0.031353        -0.505115
 H         4.198191        -0.320507        -2.352004
 H         0.794939        -0.949486        -2.352010
