19
Iteration:  4874charge 0 multiplicity 1
 C        -0.069149        -0.053298         0.017062
 C         1.522093         0.019600         0.025651
 O         2.033870         1.405935         0.441950
 C         2.131087        -1.060193         0.947937
 C         2.983928        -1.954896         0.453330
 C         3.090898        -1.630668        -0.986090
 C         3.705911        -0.370778        -1.517241
 C         2.181081        -0.537224        -1.267890
 O         1.384295        -0.677151        -2.446649
 H        -0.360833        -0.438456        -1.014466
 H        -0.285356        -0.993193         0.786398
 H        -0.627396         0.828529         0.355905
 H         3.066677         1.210698         0.542284
 H         1.634111        -1.004543         1.902732
 H         3.517957        -2.776563         0.996387
 H         2.967980        -2.395172        -1.806324
 H         4.109943         0.306279        -0.770259
 H         4.052440        -0.273238        -2.546906
 H         1.795796        -0.265643        -3.218957
