19
Iteration:  3222charge 0 multiplicity 1
 C        -0.052773        -0.086115         0.108360
 C         1.476524        -0.022447         0.009482
 O         1.901476         1.330523         0.316458
 C         2.213194        -0.902965         1.013233
 C         2.980020        -1.822778         0.542339
 C         3.006467        -1.811080        -0.953355
 C         3.808168        -0.546035        -1.461362
 C         2.217912        -0.602099        -1.381149
 O         1.500598        -0.512487        -2.604037
 H        -0.584876         0.606358        -0.429143
 H        -0.335208        -1.202727        -0.028848
 H        -0.142407         0.077457         1.183217
 H         1.088595         1.787865         0.551909
 H         2.159724        -0.666955         2.087740
 H         3.616857        -2.457563         1.240225
 H         3.129157        -2.840324        -1.434579
 H         4.175263         0.103045        -0.624991
 H         4.128044        -0.615200        -2.498723
 H         1.656313         0.445468        -2.770030
