19
Iteration:  3833charge 0 multiplicity 1
 C         0.051355        -0.228143        -0.039694
 C         1.588823        -0.049161         0.030903
 O         1.840838         1.405384         0.223624
 C         2.284107        -0.903442         1.144015
 C         3.002159        -1.950808         0.598567
 C         3.003576        -1.814500        -0.906674
 C         3.730226        -0.624641        -1.508869
 C         2.258399        -0.526350        -1.286039
 O         1.379624        -0.286961        -2.506965
 H        -0.383699         0.444099        -0.746583
 H        -0.450318        -1.278912        -0.288017
 H        -0.401014         0.033531         0.925276
 H         0.927288         1.861255         0.356857
 H         1.975674        -0.970649         2.195780
 H         3.536750        -2.706701         1.131051
 H         3.065419        -2.682038        -1.558921
 H         4.513079        -0.043315        -1.075141
 H         3.855236        -0.884032        -2.511977
 H         1.928834         0.312899        -3.061770
