19
Iteration:  4260charge 0 multiplicity 1
 C        -0.037066         0.009002         0.093864
 C         1.521990        -0.021162         0.031166
 O         1.951850         1.315173         0.453040
 C         2.146531        -1.039110         1.031089
 C         2.941917        -2.048116         0.476355
 C         3.122373        -1.682404        -0.979593
 C         3.689583        -0.289535        -1.392633
 C         2.097904        -0.570119        -1.333938
 O         1.465097        -0.602497        -2.641708
 H        -0.240979        -0.939474         0.770205
 H        -0.221286         0.954189         0.525192
 H        -0.423266        -0.131211        -1.020848
 H         2.842214         1.242577        -0.071956
 H         2.039368        -0.976886         2.088364
 H         3.358308        -2.947870         0.987136
 H         3.438498        -2.467231        -1.687523
 H         4.299394         0.499974        -0.819369
 H         3.808370        -0.311820        -2.508191
 H         1.736172         0.175466        -3.137353
