19
Iteration:  4718charge 0 multiplicity 1
 C         0.083765        -0.303205         0.158802
 C         1.546515         0.014820         0.034227
 O         1.802066         1.394386         0.234433
 C         2.315044        -0.899779         1.050038
 C         2.903178        -2.030330         0.465487
 C         2.794403        -1.901513        -0.984508
 C         3.668654        -0.473243        -1.465811
 C         2.217246        -0.477661        -1.277264
 O         1.645440        -0.186356        -2.507102
 H        -0.067863        -1.423666         0.278964
 H        -0.552955         0.183403         0.988827
 H        -0.482892        -0.079477        -0.842645
 H         2.685283         1.438485         0.039940
 H         2.337760        -0.583984         2.054515
 H         3.498790        -2.749451         0.975036
 H         2.852532        -2.718357        -1.744554
 H         4.462099        -0.073446        -0.892750
 H         3.964816        -0.760814        -2.447682
 H         0.911100        -0.880352        -2.601958
