19
Iteration:  3665charge 0 multiplicity 1
 C        -0.029009        -0.084052        -0.004051
 C         1.503682         0.005213         0.023650
 O         1.900775         1.353868         0.365055
 C         2.121086        -0.967932         1.067895
 C         2.959684        -1.899666         0.475058
 C         3.085471        -1.767719        -0.930490
 C         3.764382        -0.472028        -1.428721
 C         2.243649        -0.542050        -1.384122
 O         1.442044        -0.581426        -2.506279
 H        -0.652159         0.704556        -0.658560
 H        -0.335249        -1.075632        -0.329845
 H        -0.455088        -0.161448         1.072211
 H         2.426225         1.782576        -0.401228
 H         2.080123        -0.790061         2.143220
 H         3.618082        -2.560083         1.107102
 H         3.166396        -2.552948        -1.654921
 H         4.228217         0.103365        -0.598715
 H         4.440331        -0.639111        -2.335004
 H         1.321924         0.372022        -2.695583
