19
Iteration:  1777charge 0 multiplicity 1
 C         0.090480        -0.109378        -0.138493
 C         1.581381        -0.072564         0.022933
 O         2.031279         1.330450         0.241976
 C         2.152689        -0.961198         1.171609
 C         2.877046        -1.967302         0.562905
 C         2.995255        -1.752584        -0.911121
 C         3.703701        -0.526925        -1.531297
 C         2.221602        -0.534943        -1.282405
 O         1.348720        -0.371480        -2.364055
 H        -0.220419         0.492124        -1.017721
 H        -0.185839        -1.211596        -0.267361
 H        -0.396286         0.158240         0.770341
 H         1.313877         1.908451        -0.240442
 H         1.819179        -1.039376         2.195347
 H         3.671722        -2.528227         1.013997
 H         2.986108        -2.632031        -1.544798
 H         4.398901         0.109139        -0.889861
 H         4.241747        -0.534479        -2.468952
 H         1.938900        -0.156440        -3.098438
