19
Iteration:  3954
 C         0.054784        -0.202862         0.014530
 C         1.597794        -0.077362         0.000938
 O         1.996522         1.306888         0.162923
 C         2.188874        -0.909953         1.060103
 C         2.978014        -1.909319         0.532547
 C         3.028540        -1.710417        -0.976330
 C         3.688522        -0.460659        -1.374318
 C         2.192691        -0.544287        -1.311195
 O         1.352210        -0.451499        -2.447905
 H        -0.362703         0.792735        -0.034286
 H        -0.353906        -0.838889        -0.872767
 H        -0.449688        -0.639545         0.912409
 H         1.391319         1.733919         0.828034
 H         2.098631        -0.840367         2.146732
 H         3.524602        -2.757151         1.112713
 H         3.015202        -2.577205        -1.650608
 H         3.968616         0.252853        -0.646635
 H         4.108043        -0.437197        -2.377816
 H         1.848286         0.209644        -3.001178
