19
Iteration:   148
 C         0.036867        -0.062083         0.053933
 C         1.527619         0.041612         0.039895
 O         1.832384         1.399325         0.381459
 C         2.113274        -0.892488         1.037002
 C         2.846520        -1.923709         0.491010
 C         2.906880        -1.828654        -0.973021
 C         3.753269        -0.558572        -1.418096
 C         2.292201        -0.554623        -1.271946
 O         1.706191        -0.589915        -2.610926
 H        -0.176668        -0.669078         0.921386
 H        -0.544802         0.857437         0.114033
 H        -0.396877        -0.631257        -0.834494
 H         2.064573         1.819790        -0.532832
 H         2.086216        -0.531224         2.080995
 H         3.547221        -2.516602         1.073805
 H         2.722919        -2.638571        -1.642798
 H         4.259727        -0.004783        -0.602718
 H         4.154349        -0.632522        -2.438439
 H         1.068155         0.142406        -2.752536
