19
Iteration:  2272
 C         0.065086        -0.132521         0.215062
 C         1.557933        -0.025240        -0.010155
 O         2.004758         1.425613         0.056067
 C         2.200382        -0.983258         1.042548
 C         2.866275        -1.989405         0.484067
 C         3.029972        -1.808547        -0.942035
 C         3.641516        -0.431317        -1.238449
 C         2.144547        -0.620621        -1.350591
 O         1.461052        -0.455578        -2.530487
 H        -0.532933         0.573766        -0.442309
 H        -0.170202        -1.243100        -0.146383
 H        -0.328323         0.047421         1.237750
 H         2.659209         1.559006        -0.604598
 H         2.175416        -0.692044         2.166609
 H         3.157337        -2.904436         1.081470
 H         3.140381        -2.534103        -1.672854
 H         4.176722        -0.031425        -0.345415
 H         4.020500        -0.097574        -2.155903
 H         1.295203         0.499308        -2.723503
