19
Iteration:  1744
 C         0.002380        -0.051319        -0.082637
 C         1.541162        -0.039780         0.007301
 O         1.966311         1.370166         0.388811
 C         2.198335        -0.909561         1.042600
 C         2.932857        -1.900857         0.521784
 C         3.076437        -1.849019        -0.951928
 C         3.716234        -0.650851        -1.527370
 C         2.183845        -0.512385        -1.334615
 O         1.435384        -0.446854        -2.460182
 H        -0.400106         0.016414        -1.105167
 H        -0.426364        -1.060316         0.268079
 H        -0.434863         0.745135         0.491012
 H         1.341271         1.768385         1.009763
 H         1.886923        -0.793658         2.101046
 H         3.623038        -2.379651         1.184908
 H         2.918489        -2.789405        -1.436494
 H         4.288586        -0.084892        -0.682550
 H         4.149979        -0.639654        -2.563299
 H         1.929813         0.216927        -3.010511
