19
Iteration:   574charge 0 multiplicity 1
 C        -0.013520        -0.024181        -0.104954
 C         1.521735        -0.037174         0.012446
 O         2.020501         1.223350         0.248125
 C         1.985294        -1.046038         1.077254
 C         2.998136        -1.843563         0.633776
 C         3.028017        -1.773516        -0.922136
 C         3.732193        -0.453687        -1.449823
 C         2.216369        -0.573505        -1.276466
 O         1.635598        -0.400304        -2.490430
 H        -0.560537         0.781105         0.429524
 H        -0.456535         0.073262        -1.110198
 H        -0.494981        -0.860857         0.333774
 H         1.398294         1.840350        -0.116146
 H         1.592014        -0.974939         2.050485
 H         3.487683        -2.586959         1.214277
 H         2.986720        -2.590340        -1.631319
 H         4.311600         0.276809        -0.786732
 H         3.982924        -0.472523        -2.519137
 H         0.772295        -0.826752        -2.409228
