19
Iteration:  2989charge 0 multiplicity 1
 C        -0.011112        -0.160864         0.046804
 C         1.479653        -0.072352         0.050904
 O         1.770214         1.289860         0.231895
 C         2.261590        -0.852416         1.009778
 C         3.048271        -1.835654         0.537581
 C         3.033914        -1.907182        -0.901667
 C         3.678672        -0.644154        -1.436209
 C         2.211207        -0.534271        -1.351172
 O         1.484914        -0.312680        -2.551618
 H        -0.317345         0.436845        -0.880102
 H        -0.377578        -1.103063         0.082935
 H        -0.428105         0.272373         0.988278
 H         2.110157         1.460296         1.204805
 H         2.299005        -0.453530         2.003029
 H         3.976021        -2.262183         0.980607
 H         2.967115        -2.984210        -1.365903
 H         4.404874         0.054872        -0.852561
 H         4.051497        -0.701349        -2.459628
 H         1.910566         0.533804        -2.849515
