19
Iteration:  2564charge 0 multiplicity 1
 C         0.090760        -0.074636         0.148288
 C         1.583595         0.008448        -0.016970
 O         1.900520         1.435075         0.238480
 C         2.137136        -0.888984         1.013146
 C         2.820994        -1.955398         0.482231
 C         3.005537        -1.767779        -0.992996
 C         3.691503        -0.481760        -1.376250
 C         2.220712        -0.542832        -1.280320
 O         1.534439        -0.623997        -2.549551
 H        -0.491162         0.843747         0.003542
 H        -0.322247        -0.947319        -0.485373
 H        -0.153446        -0.402844         1.136709
 H         2.803243         1.611735         0.095999
 H         2.087753        -0.722773         2.053852
 H         3.142958        -2.926533         0.884356
 H         3.155052        -2.705913        -1.624879
 H         4.290783        -0.059660        -0.529487
 H         4.139829        -0.544449        -2.384956
 H         0.899676         0.122540        -2.686703
