19
Iteration:  4778
 C         0.087673        -0.314187         0.052266
 C         1.571165        -0.055807         0.029932
 O         1.740243         1.404558         0.283374
 C         2.289599        -0.909862         1.121757
 C         2.882107        -2.026956         0.538312
 C         2.953892        -1.818667        -1.038442
 C         3.722421        -0.632022        -1.497683
 C         2.286329        -0.438724        -1.263512
 O         1.514932        -0.225933        -2.542047
 H        -0.058144        -1.391373        -0.041801
 H        -0.294685         0.123320         0.974993
 H        -0.355109         0.186053        -0.767465
 H         2.684636         1.647038        -0.001567
 H         2.262430        -0.458483         2.157096
 H         3.412609        -2.880770         1.111318
 H         2.806892        -2.759027        -1.607300
 H         4.512693        -0.033541        -0.905654
 H         3.780358        -0.471898        -2.604023
 H         0.759523         0.351038        -2.273182
