19
Iteration:  1532
 C         0.009006        -0.138634         0.080829
 C         1.577076        -0.066855        -0.006443
 O         2.045169         1.319468         0.147442
 C         2.144593        -0.969841         1.077332
 C         2.890061        -1.952187         0.523164
 C         3.010210        -1.868940        -0.922739
 C         3.618228        -0.500377        -1.301506
 C         2.206783        -0.571890        -1.317567
 O         1.507263        -0.313525        -2.526342
 H        -0.554790         0.441202        -0.656302
 H        -0.238018        -1.140900         0.003821
 H        -0.172888         0.360042         1.064843
 H         1.550579         1.750698        -0.503215
 H         1.898987        -0.639952         2.135025
 H         3.391055        -2.810052         1.042047
 H         3.134095        -2.546577        -1.742451
 H         3.853162         0.138507        -0.424354
 H         4.171958        -0.475829        -2.171414
 H         1.777056         0.456932        -3.066460
