19
Iteration:  3347
 C        -0.053895        -0.096475         0.267630
 C         1.539735        -0.149678         0.024467
 O         1.844268         1.366592         0.056220
 C         2.267631        -1.012994         1.048374
 C         2.937459        -1.916979         0.451297
 C         3.018388        -1.766877        -1.023866
 C         3.734818        -0.456978        -1.291195
 C         2.198177        -0.572719        -1.317685
 O         1.527409        -0.462962        -2.562637
 H        -0.376302         0.920990        -0.249367
 H        -0.497098        -1.002306         0.003091
 H        -0.133429         0.218298         1.308657
 H         1.208979         1.691134         0.651344
 H         2.208035        -0.801100         2.117154
 H         3.649765        -2.669714         0.936935
 H         3.175682        -2.561368        -1.707537
 H         4.227189         0.078973        -0.449231
 H         4.249656        -0.198803        -2.161906
 H         1.747287         0.337799        -3.052731
