19
Iteration:  3699charge 0 multiplicity 1
 C        -0.021374         0.034416        -0.118040
 C         1.504428        -0.047458         0.103639
 O         1.930368         1.220600         0.545811
 C         2.129959        -0.973422         1.054681
 C         3.011342        -1.782018         0.506896
 C         3.115802        -1.682302        -0.973075
 C         3.572573        -0.389746        -1.510718
 C         2.176869        -0.499161        -1.344364
 O         1.480551        -0.719315        -2.536445
 H        -0.112436         0.559848        -1.177008
 H        -0.259974        -1.026505        -0.173069
 H        -0.404518         0.759500         0.649935
 H         2.852076         1.358017         0.101637
 H         1.903711        -1.028791         2.073769
 H         3.583420        -2.569775         1.103732
 H         3.039159        -2.611807        -1.563799
 H         4.065043         0.164607        -0.742364
 H         3.978489        -0.510664        -2.595841
 H         2.011624        -0.236940        -3.224699
