19
Iteration:   993
 C         0.166336        -0.199283        -0.182991
 C         1.635540         0.065886        -0.082988
 O         1.837675         1.403251         0.361947
 C         2.103565        -0.962659         1.032053
 C         2.851859        -1.930643         0.543042
 C         2.976418        -1.810017        -0.931901
 C         3.771027        -0.579065        -1.318527
 C         2.227332        -0.515461        -1.265727
 O         1.424163        -0.353424        -2.422441
 H        -0.301763         0.212771        -1.068261
 H         0.150219        -1.230792        -0.085661
 H        -0.243659         0.421513         0.625062
 H         2.516537         1.927114        -0.195845
 H         1.681996        -0.820303         2.067499
 H         3.283325        -2.850712         0.990938
 H         2.770979        -2.531028        -1.730841
 H         4.459204        -0.185692        -0.491139
 H         4.176346        -0.787486        -2.256671
 H         1.640440        -0.956135        -3.174967
