19
Iteration:   110
 C        -0.001181        -0.116119        -0.030597
 C         1.575307        -0.010234        -0.065029
 O         1.955437         1.349673         0.135304
 C         2.074707        -0.924353         1.059293
 C         2.875934        -1.964338         0.561231
 C         3.016625        -1.828438        -0.898476
 C         3.722341        -0.466076        -1.349398
 C         2.258078        -0.576101        -1.320242
 O         1.492668        -0.460293        -2.489487
 H        -0.341571        -0.294996         1.012818
 H        -0.487981         0.795015        -0.410624
 H        -0.225177        -1.036829        -0.525223
 H         2.385072         1.566414         0.986418
 H         2.054452        -0.702853         2.119296
 H         3.471925        -2.661864         1.178117
 H         3.098519        -2.612270        -1.669010
 H         4.240929         0.279352        -0.718603
 H         4.223490        -0.614331        -2.266057
 H         1.262830         0.485273        -2.317294
