19
Iteration:  3803charge 0 multiplicity 1
 C         0.006623        -0.118126         0.072580
 C         1.523095        -0.056286        -0.005024
 O         1.942846         1.357092         0.307663
 C         2.170041        -0.875452         1.026836
 C         2.925555        -1.832487         0.504948
 C         3.043391        -1.806711        -1.037284
 C         3.695251        -0.512336        -1.420572
 C         2.247885        -0.590810        -1.299738
 O         1.475756        -0.557102        -2.514743
 H        -0.275903         0.888246        -0.161358
 H        -0.546181        -0.771980        -0.586455
 H        -0.261982        -0.369051         1.134014
 H         1.158448         1.753171         0.634445
 H         1.932851        -0.744161         2.036489
 H         3.660138        -2.378014         1.106124
 H         3.033332        -2.687016        -1.676345
 H         4.275737        -0.075062        -0.642303
 H         4.246918        -0.300726        -2.400532
 H         1.854643         0.192859        -3.018464
