19
Iteration:  3913
 C         0.111058        -0.257153         0.272147
 C         1.614740        -0.054401        -0.049695
 O         1.762428         1.417248         0.179193
 C         2.250295        -0.881213         0.998309
 C         2.894162        -1.991231         0.464622
 C         2.947743        -1.802037        -0.988826
 C         3.703218        -0.579870        -1.443367
 C         2.177805        -0.501837        -1.291336
 O         1.641400        -0.360386        -2.509628
 H        -0.535576         0.238170        -0.546461
 H        -0.317997        -1.246618         0.277818
 H        -0.173190         0.260460         1.262948
 H         0.804343         1.733474         0.292949
 H         2.041762        -0.739056         2.092533
 H         3.485889        -2.761222         1.095801
 H         2.864205        -2.698301        -1.614543
 H         4.352093        -0.105707        -0.556764
 H         4.026252        -0.541662        -2.546046
 H         1.725900         0.574598        -2.805789
