19
Iteration:  3595charge 0 multiplicity 1
 C         0.089084        -0.307275         0.078705
 C         1.559643         0.008777        -0.055220
 O         1.760059         1.381327         0.105939
 C         2.315621        -0.827345         1.050615
 C         2.912091        -1.883326         0.523771
 C         2.929942        -1.860571        -0.961290
 C         3.731977        -0.598655        -1.340982
 C         2.190155        -0.563181        -1.317628
 O         1.519125        -0.282739        -2.494966
 H        -0.483879         0.189990        -0.663778
 H        -0.108485        -1.460322         0.128328
 H        -0.133766        -0.123212         1.097747
 H         2.005971         1.473589         1.058539
 H         2.095440        -0.658344         2.109192
 H         3.311647        -2.771111         1.076610
 H         2.757021        -2.810756        -1.587585
 H         4.221128        -0.147813        -0.483757
 H         4.311178        -0.625141        -2.297938
 H         1.924495         0.553963        -2.746911
