19
Iteration:  3556
 C         0.011007        -0.267715        -0.028690
 C         1.545918         0.045685         0.088162
 O         1.785926         1.399649         0.329787
 C         2.305856        -0.891408         1.103554
 C         3.006982        -1.869726         0.545432
 C         2.904588        -1.780354        -0.934000
 C         3.780925        -0.704976        -1.590391
 C         2.239964        -0.475265        -1.277903
 O         1.535886        -0.396452        -2.531045
 H        -0.607844        -0.015882        -1.016426
 H        -0.010532        -1.276228         0.064954
 H        -0.526148         0.390996         0.734825
 H         0.996954         1.953621         0.666026
 H         2.124899        -0.983199         2.202240
 H         3.323533        -2.724545         1.047436
 H         2.680424        -2.645105        -1.489826
 H         4.355583        -0.016093        -0.878528
 H         3.987446        -0.743367        -2.627323
 H         2.104680         0.148386        -3.137806
