19
Iteration:  2393charge 0 multiplicity 1
 C         0.033071         0.007606         0.116067
 C         1.542680        -0.028419        -0.053410
 O         1.957427         1.334264         0.227222
 C         2.091876        -0.989659         1.088668
 C         2.902076        -1.931141         0.517982
 C         3.142475        -1.749581        -0.991165
 C         3.725112        -0.438404        -1.435384
 C         2.159625        -0.612807        -1.325387
 O         1.420965        -0.552742        -2.463348
 H        -0.597207         0.957456        -0.034981
 H        -0.459590        -0.682369        -0.572344
 H        -0.210201        -0.308669         1.126426
 H         2.939834         1.374977         0.052181
 H         1.858320        -0.839770         2.077624
 H         3.440992        -2.526133         1.199213
 H         3.108312        -2.585263        -1.753152
 H         4.308397        -0.040701        -0.682842
 H         4.027093        -0.426876        -2.506103
 H         1.478196         0.285310        -2.920511
