19
Iteration:  1921charge 0 multiplicity 1
 C         0.052579        -0.125354        -0.025553
 C         1.573817         0.047060         0.015320
 O         1.927110         1.455399         0.344346
 C         2.232152        -0.928252         1.090054
 C         2.819835        -1.982975         0.469754
 C         2.981473        -1.790214        -0.947187
 C         3.674967        -0.527015        -1.492913
 C         2.201517        -0.582802        -1.245033
 O         1.523571        -0.541145        -2.494194
 H        -0.459000         0.358713        -0.902150
 H        -0.034152        -1.166435        -0.038273
 H        -0.521501         0.395971         0.801676
 H         2.831715         1.606926        -0.098443
 H         1.960614        -0.897421         2.185250
 H         3.451788        -2.621873         1.056071
 H         2.856384        -2.552817        -1.677895
 H         4.461263        -0.065315        -0.856330
 H         3.856219        -0.528027        -2.560690
 H         1.065131         0.324748        -2.662528
