19
Iteration:  4201
 C         0.081628        -0.322349        -0.039679
 C         1.569020        -0.019312         0.051589
 O         1.683708         1.451109         0.177194
 C         2.341301        -0.894385         1.120255
 C         2.875073        -2.053272         0.489702
 C         2.970158        -1.882129        -0.990448
 C         3.729022        -0.607973        -1.546442
 C         2.280098        -0.501780        -1.230084
 O         1.509318        -0.185660        -2.371307
 H        -0.313960        -1.172926         0.393321
 H        -0.619467         0.461680         0.388493
 H        -0.233460        -0.373256        -1.023829
 H         2.561109         1.574546         0.436322
 H         2.331374        -0.824402         2.247082
 H         3.421653        -2.805597         1.051480
 H         2.880702        -2.805472        -1.550767
 H         4.483147        -0.151233        -0.971591
 H         4.024661        -0.725437        -2.553113
 H         1.329060         0.768831        -2.354266
