19
Iteration:  3877charge 0 multiplicity 1
 C         0.026186        -0.469201         0.047077
 C         1.600234        -0.008333         0.030861
 O         1.901828         1.486957         0.189773
 C         2.401605        -0.831107         1.042781
 C         2.835956        -1.989492         0.525680
 C         2.882198        -1.777119        -0.986286
 C         3.740148        -0.650111        -1.366314
 C         2.219634        -0.449865        -1.317900
 O         1.476929        -0.291500        -2.484844
 H        -0.235812        -0.373594        -0.976433
 H        -0.070186        -1.614978         0.447445
 H        -0.641078         0.174464         0.665004
 H         0.977341         1.953444         0.135140
 H         2.290769        -0.498782         2.025188
 H         3.471369        -2.798109         0.936758
 H         2.775787        -2.735558        -1.526291
 H         4.333861        -0.331096        -0.591513
 H         4.314081        -0.664517        -2.262316
 H         1.372822         0.683695        -2.629232
