19
Iteration:  2920
 C         0.013421        -0.171411         0.068801
 C         1.668545         0.063678         0.001394
 O         1.893175         1.462536         0.321349
 C         2.175320        -0.912351         0.979535
 C         2.806903        -1.988281         0.455396
 C         3.090968        -1.762851        -0.948367
 C         3.779144        -0.379333        -1.426448
 C         2.262594        -0.552332        -1.276475
 O         1.394362        -0.684705        -2.483660
 H        -0.424811         0.608150        -0.504544
 H        -0.095785        -1.228198        -0.366873
 H        -0.321224        -0.247198         1.069816
 H         2.457775         1.886467        -0.331563
 H         1.694358        -0.963679         2.005327
 H         2.907440        -2.919782         0.991060
 H         3.128961        -2.535836        -1.631984
 H         4.203524         0.192253        -0.620740
 H         4.381082        -0.225466        -2.397787
 H         1.022021         0.228854        -2.641803
