19
Iteration:  2559
 C         0.088550        -0.122726         0.180924
 C         1.598506         0.020498        -0.019997
 O         1.876539         1.454689         0.280470
 C         2.136988        -0.877407         0.912920
 C         2.853298        -1.928040         0.495262
 C         2.972995        -1.790752        -0.980281
 C         3.712371        -0.514117        -1.367324
 C         2.184198        -0.549367        -1.302252
 O         1.541071        -0.625429        -2.559712
 H        -0.344992         0.849109        -0.141029
 H        -0.354448        -0.845636        -0.548209
 H        -0.193204        -0.356701         1.265540
 H         2.877781         1.599485         0.165797
 H         2.085380        -0.646136         2.013244
 H         3.131397        -2.802032         1.088778
 H         3.139767        -2.562555        -1.665695
 H         4.309317        -0.199180        -0.540466
 H         4.151024        -0.574379        -2.372274
 H         1.065494         0.220669        -2.618187
