19
Iteration:   832
 C        -0.007720        -0.062868        -0.107408
 C         1.490054        -0.059491         0.051933
 O         1.897045         1.318677         0.330018
 C         2.132620        -0.805565         1.009597
 C         2.926719        -1.785987         0.651669
 C         2.995144        -1.909897        -0.880441
 C         3.743055        -0.614617        -1.383543
 C         2.148434        -0.711140        -1.317659
 O         1.609296        -0.304013        -2.575796
 H        -0.755804        -0.093929         0.723971
 H        -0.112527         0.903342        -0.683629
 H        -0.317557        -0.957994        -0.683158
 H         2.606385         1.576015        -0.263898
 H         2.021140        -0.437975         2.030599
 H         3.625399        -2.254529         1.400064
 H         2.731130        -2.820945        -1.462185
 H         4.470841        -0.312735        -0.648556
 H         4.190608        -0.557057        -2.413895
 H         1.412688        -1.068435        -3.132979
