19
Iteration:  2677
 C         0.068412        -0.143987        -0.002760
 C         1.613664         0.098812         0.037703
 O         1.816856         1.503782         0.442683
 C         2.170859        -0.912151         1.007031
 C         2.899011        -1.887893         0.445326
 C         2.994244        -1.847923        -0.998932
 C         3.747766        -0.612849        -1.522509
 C         2.231293        -0.517855        -1.318563
 O         1.468277        -0.611159        -2.474684
 H        -0.414618         0.075879        -0.977008
 H        -0.105938        -1.124539         0.265565
 H        -0.313117         0.480974         0.847857
 H         2.751095         1.626779         0.878979
 H         2.123594        -0.852765         2.107608
 H         3.121507        -2.771984         1.002368
 H         2.891278        -2.652821        -1.700493
 H         4.418372        -0.136758        -0.887088
 H         4.049567        -0.448974        -2.620668
 H         1.323476         0.219074        -2.953516
