19
Iteration:  2710charge 0 multiplicity 1
 C         0.117746        -0.161449        -0.025435
 C         1.660631        -0.077440         0.048093
 O         1.849516         1.349927         0.110456
 C         2.212758        -0.938012         1.100465
 C         2.892619        -1.954522         0.525559
 C         2.935458        -1.782012        -0.996447
 C         3.763456        -0.504240        -1.362429
 C         2.214743        -0.522014        -1.292776
 O         1.369157        -0.410000        -2.423298
 H        -0.401312         0.630104        -0.529775
 H        -0.285736        -1.101914        -0.261015
 H        -0.157769        -0.047829         1.053864
 H         2.761042         1.575846        -0.198343
 H         2.339462        -0.682703         2.131807
 H         3.133371        -2.823516         1.108777
 H         2.941920        -2.709473        -1.587399
 H         4.240116        -0.004614        -0.557141
 H         4.245011        -0.327511        -2.362650
 H         1.224176         0.536010        -2.544103
