19
Iteration:  3014
 C        -0.015425        -0.251733         0.139157
 C         1.598452        -0.035580         0.052369
 O         1.889900         1.381564         0.053026
 C         2.249757        -0.913170         1.095350
 C         2.943218        -1.912904         0.537241
 C         2.955060        -1.794058        -1.007595
 C         3.704403        -0.522292        -1.395532
 C         2.219942        -0.547015        -1.311702
 O         1.512174        -0.394587        -2.505926
 H        -0.609120         0.269725        -0.577397
 H        -0.291560        -1.357820         0.348760
 H        -0.244984         0.130229         1.215443
 H         1.344452         1.834553         0.789589
 H         1.855312        -0.777112         2.125171
 H         3.430698        -2.794515         0.938554
 H         3.037686        -2.620320        -1.702646
 H         4.285097         0.028837        -0.732544
 H         4.128035        -0.416951        -2.450616
 H         1.885583         0.442568        -2.814759
