19
Iteration:  3721
 C        -0.070148         0.058581        -0.145290
 C         1.485976        -0.095343        -0.018703
 O         1.970416         1.344169         0.415495
 C         2.033988        -1.126334         1.026540
 C         3.044637        -1.890433         0.536888
 C         3.132455        -1.676720        -0.941817
 C         3.824720        -0.311254        -1.471361
 C         2.249460        -0.540905        -1.307464
 O         1.296061        -0.714489        -2.426435
 H        -0.306180         0.561302        -1.162024
 H        -0.425695        -0.964135        -0.081295
 H        -0.301738         0.793260         0.652790
 H         2.829977         1.177422         0.763224
 H         1.783494        -0.978357         2.046533
 H         3.843402        -2.458689         1.084664
 H         3.275742        -2.531072        -1.640841
 H         4.271667         0.414921        -0.821601
 H         3.855721        -0.308481        -2.599806
 H         1.602875         0.005507        -2.987689
