19
Iteration:   245charge 0 multiplicity 1
 C         0.050875        -0.083587        -0.066792
 C         1.536834        -0.116266        -0.062450
 O         1.841448         1.332314         0.299267
 C         2.109407        -0.942236         1.040562
 C         2.884642        -1.878356         0.586389
 C         2.984181        -1.796575        -0.936060
 C         3.779852        -0.489449        -1.293225
 C         2.263728        -0.574058        -1.357358
 O         1.491845        -0.462881        -2.548560
 H        -0.196022         0.684609         0.651732
 H        -0.396071         0.199417        -1.026568
 H        -0.506321        -0.986094         0.343007
 H         2.812836         1.530557         0.142939
 H         1.910190        -0.615134         2.066340
 H         3.443629        -2.608177         1.162068
 H         3.151665        -2.692212        -1.506181
 H         4.255499         0.137370        -0.449319
 H         4.279253        -0.625001        -2.236376
 H         1.705145         0.433060        -2.878003
