19
Iteration:  2029charge 0 multiplicity 1
 C         0.118435        -0.119585        -0.145115
 C         1.627968         0.122962        -0.075713
 O         1.858143         1.387358         0.428305
 C         2.151426        -0.905358         1.083963
 C         2.944683        -1.919255         0.519032
 C         2.993507        -1.803846        -0.982438
 C         3.833780        -0.661264        -1.503158
 C         2.227477        -0.532098        -1.330940
 O         1.276609        -0.403346        -2.378158
 H        -0.281963         0.476746        -1.034185
 H        -0.127503        -1.141553        -0.300595
 H        -0.239278         0.176948         0.937681
 H         2.792054         1.556324         0.419502
 H         1.862844        -0.999422         2.230365
 H         3.580593        -2.599062         1.103501
 H         2.858008        -2.648755        -1.643384
 H         4.456349        -0.068649        -0.736833
 H         4.140811        -0.615487        -2.511957
 H         1.140476        -1.237238        -2.831349
