19
Iteration:  4882charge 0 multiplicity 1
 C        -0.100270        -0.078179        -0.017249
 C         1.522914        -0.012882        -0.027031
 O         2.072092         1.356339         0.483115
 C         2.104301        -1.003760         0.991805
 C         3.015741        -1.864277         0.413902
 C         3.082283        -1.688831        -1.001030
 C         3.679397        -0.374368        -1.446784
 C         2.225076        -0.484342        -1.344845
 O         1.371081        -0.689813        -2.425915
 H        -0.463806        -0.324848        -0.999121
 H        -0.382375        -0.899557         0.692607
 H        -0.538557         0.848287         0.333055
 H         3.057763         1.245056         0.556347
 H         1.876068        -1.157138         2.103358
 H         3.422025        -2.739440         0.974061
 H         3.091951        -2.526431        -1.680227
 H         4.141738         0.346036        -0.828129
 H         3.935006        -0.403514        -2.471116
 H         1.530030        -0.164511        -3.197409
