19
Iteration:  4625
 C         0.008959         0.068572        -0.065108
 C         1.563461        -0.032085         0.001709
 O         2.033577         1.300634         0.525896
 C         2.109432        -1.120291         1.076785
 C         2.979005        -1.943435         0.539547
 C         3.078596        -1.683905        -0.987526
 C         3.640110        -0.228289        -1.557918
 C         2.219833        -0.548266        -1.381594
 O         1.387886        -0.729173        -2.552563
 H        -0.477234        -0.900662        -0.202236
 H        -0.278239         0.509802         0.944348
 H        -0.299354         0.754998        -0.801276
 H         3.020899         1.303692         0.878635
 H         1.764367        -1.027817         2.114283
 H         3.599594        -2.730621         0.877248
 H         3.068627        -2.425574        -1.745729
 H         4.071282         0.430091        -0.797735
 H         4.097837        -0.211201        -2.589931
 H         0.613127        -0.195492        -2.543665
