19
Iteration:  1732charge 0 multiplicity 1
 C        -0.003953        -0.062254        -0.031094
 C         1.563187         0.042139         0.002989
 O         1.941374         1.346674         0.364932
 C         2.176645        -0.914392         1.056721
 C         2.937722        -1.882574         0.552350
 C         2.909639        -1.819122        -0.993525
 C         3.815627        -0.593262        -1.413290
 C         2.248034        -0.603963        -1.334122
 O         1.432450        -0.495154        -2.588956
 H        -0.407918         0.103196        -1.025574
 H        -0.363529        -1.000576         0.529522
 H        -0.331633         0.746968         0.616768
 H         1.517165         1.404081         1.308137
 H         2.116343        -0.691669         2.181692
 H         3.678051        -2.497788         1.047921
 H         2.953999        -2.636646        -1.700277
 H         4.496411         0.080377        -0.742409
 H         4.134240        -0.657913        -2.447635
 H         1.577890         0.331462        -3.053124
