19
Iteration:  4074
 C         0.040232        -0.029954        -0.121654
 C         1.547594        -0.052114         0.015562
 O         2.031640         1.227241         0.341751
 C         2.018508        -1.088373         1.034537
 C         2.999574        -1.870145         0.482780
 C         3.091366        -1.644183        -0.982836
 C         3.654808        -0.254635        -1.439547
 C         2.170325        -0.549036        -1.245155
 O         1.411721        -0.654273        -2.399744
 H        -0.313572        -0.071700        -1.167745
 H        -0.404395        -0.830383         0.498885
 H        -0.433829         0.940822         0.282541
 H         2.899972         1.267392        -0.056353
 H         1.970637        -0.930896         2.100601
 H         3.571739        -2.560823         0.963456
 H         3.142221        -2.415388        -1.687992
 H         4.216158         0.084072        -0.571352
 H         3.842432        -0.237959        -2.480362
 H         1.259349         0.247004        -2.654111
