19
Iteration:  1920
 C         0.067250        -0.124408        -0.035874
 C         1.569014         0.051928         0.001641
 O         1.927940         1.453796         0.344370
 C         2.233498        -0.942221         1.097713
 C         2.821700        -1.977993         0.476654
 C         2.974637        -1.779761        -0.944575
 C         3.675355        -0.523623        -1.485930
 C         2.195179        -0.581604        -1.237687
 O         1.518315        -0.538512        -2.493344
 H        -0.456629         0.334236        -0.945895
 H        -0.032529        -1.188368        -0.048269
 H        -0.533539         0.371690         0.783372
 H         2.866396         1.591549        -0.084212
 H         2.007078        -0.880174         2.169552
 H         3.470168        -2.639288         1.046074
 H         2.848083        -2.567402        -1.658570
 H         4.484810        -0.123865        -0.886414
 H         3.854152        -0.517509        -2.595254
 H         1.027260         0.315799        -2.636945
