19
Iteration:  3790charge 0 multiplicity 1
 C        -0.004818        -0.084785         0.059750
 C         1.537871        -0.027438         0.023405
 O         2.051937         1.317554         0.259979
 C         2.142028        -0.917464         1.076056
 C         2.977751        -1.844284         0.434429
 C         2.958180        -1.728895        -1.008659
 C         3.767522        -0.388634        -1.337063
 C         2.114754        -0.558090        -1.314051
 O         1.516084        -0.680389        -2.539164
 H        -0.560742         0.782182        -0.163332
 H        -0.318316        -0.890894        -0.764852
 H        -0.398136        -0.416066         1.021653
 H         1.369840         1.866427         0.765724
 H         1.946937        -0.942679         2.195212
 H         3.452025        -2.636270         0.975150
 H         2.940555        -2.595154        -1.659175
 H         4.238093         0.140677        -0.537837
 H         3.952571        -0.284345        -2.369057
 H         1.496098         0.177909        -2.991035
