19
Iteration:  2351
 C         0.091260        -0.044316        -0.272950
 C         1.591810         0.001498         0.062537
 O         1.967345         1.277224         0.445798
 C         2.160419        -0.953414         1.155808
 C         2.981771        -1.881640         0.538736
 C         3.021022        -1.755074        -0.955664
 C         3.698790        -0.486335        -1.558499
 C         2.184797        -0.488245        -1.297887
 O         1.294039        -0.605461        -2.415964
 H        -0.212278         0.560015        -1.211501
 H        -0.261053        -1.036488        -0.441635
 H        -0.301248         0.388743         0.690216
 H         2.861820         1.225197         0.648724
 H         2.200035        -0.556903         2.110147
 H         3.619988        -2.624531         0.955102
 H         2.837179        -2.577296        -1.723796
 H         4.300353         0.093258        -0.914802
 H         3.850045        -0.437229        -2.663875
 H         1.272336         0.308215        -2.761853
