19
Iteration:  1764charge 0 multiplicity 1
 C         0.036005        -0.104576        -0.166312
 C         1.598009         0.022342         0.043573
 O         2.001408         1.326283         0.280730
 C         2.108126        -1.019806         1.099386
 C         3.026546        -1.907764         0.579850
 C         2.989361        -1.817850        -0.944328
 C         3.723308        -0.529327        -1.542417
 C         2.221719        -0.567681        -1.237140
 O         1.392111        -0.372121        -2.375180
 H        -0.308751         0.247612        -1.128677
 H        -0.324703        -1.189045        -0.097946
 H        -0.437439         0.578389         0.537477
 H         1.281735         1.910525         0.260830
 H         1.927616        -0.776061         2.203247
 H         3.311900        -2.741307         1.168318
 H         2.942526        -2.714732        -1.542185
 H         4.466643         0.116042        -0.992369
 H         3.614977        -0.744876        -2.526271
 H         1.914501        -0.047177        -3.135796
