19
Iteration:  1352charge 0 multiplicity 1
 C         0.086348        -0.163256         0.067363
 C         1.539974         0.025377        -0.012376
 O         1.975804         1.493617         0.169949
 C         2.068285        -1.004097         0.997059
 C         2.829271        -1.974487         0.476838
 C         3.034166        -1.780885        -0.936784
 C         3.775736        -0.529250        -1.348577
 C         2.238926        -0.524425        -1.283507
 O         1.523318        -0.535681        -2.499423
 H        -0.487353         0.458537        -0.667092
 H        -0.241577        -1.190995        -0.270433
 H        -0.265293         0.102701         1.061914
 H         1.421484         1.882150         0.924298
 H         1.893677        -0.780611         2.079323
 H         3.172401        -2.956577         0.944358
 H         2.851079        -2.586544        -1.636744
 H         4.171894         0.052356        -0.453711
 H         4.429648        -0.429897        -2.165825
 H         1.320248         0.342455        -2.857000
