19
Iteration:  1397charge 0 multiplicity 1
 C        -0.121322         0.026783         0.141244
 C         1.550509        -0.067536         0.026066
 O         2.084810         1.272315         0.141847
 C         2.101754        -1.000085         1.014057
 C         2.937141        -1.973010         0.545198
 C         3.051896        -1.782021        -0.979541
 C         3.664550        -0.375016        -1.304250
 C         2.120476        -0.695911        -1.269570
 O         1.614020        -0.466175        -2.565944
 H        -0.649476         0.686606        -0.589991
 H        -0.583364        -0.979510        -0.170620
 H        -0.486160         0.438419         1.055583
 H         1.268642         1.817520         0.070153
 H         2.081829        -0.851821         2.050250
 H         3.425383        -2.770468         1.071425
 H         3.141122        -2.496491        -1.795669
 H         4.268222         0.204960        -0.554888
 H         3.968476        -0.178376        -2.364553
 H         1.851477         0.428616        -2.850973
