19
Iteration:  2088charge 0 multiplicity 1
 C         0.045305        -0.057657         0.114911
 C         1.557837        -0.005406         0.022610
 O         1.911009         1.367346         0.237034
 C         2.153625        -0.950427         1.041954
 C         2.998441        -1.855267         0.507703
 C         2.985281        -1.856160        -0.973460
 C         3.654929        -0.463752        -1.349877
 C         2.167613        -0.619080        -1.318972
 O         1.524618        -0.481195        -2.601166
 H        -0.319695         0.743392        -0.515647
 H        -0.448455        -1.026113        -0.231852
 H        -0.318814         0.280305         1.052955
 H         2.937111         1.454525         0.350488
 H         2.147684        -0.804727         2.080451
 H         3.321496        -2.802659         1.001808
 H         3.072662        -2.681252        -1.729774
 H         4.250491        -0.016045        -0.580330
 H         4.185585        -0.578720        -2.338919
 H         0.561335        -0.242916        -2.591081
