19
Iteration:  2411
 C        -0.028518         0.032251         0.324750
 C         1.502618        -0.064363        -0.003768
 O         1.860475         1.336712         0.158767
 C         2.183692        -0.941694         0.963363
 C         2.912548        -1.955219         0.480527
 C         2.979197        -1.771022        -0.998138
 C         3.753254        -0.472415        -1.321244
 C         2.263655        -0.537454        -1.323175
 O         1.510995        -0.600192        -2.620767
 H        -0.263295         1.040282         0.087269
 H        -0.706134        -0.654362        -0.302397
 H        -0.178245        -0.111128         1.369873
 H         2.854090         1.370939         0.117618
 H         2.094119        -0.742658         2.097278
 H         3.421439        -2.833311         0.939317
 H         3.213976        -2.623663        -1.558031
 H         4.231282         0.226322        -0.565135
 H         4.314374        -0.478279        -2.306794
 H         1.385469         0.341003        -2.750227
