19
Iteration:  1458
 C         0.100038        -0.117575        -0.241253
 C         1.661768         0.063051         0.056644
 O         1.929435         1.419725         0.542636
 C         2.161749        -0.933256         1.066790
 C         2.802104        -1.945283         0.438341
 C         3.070227        -1.791708        -0.950335
 C         3.687062        -0.601614        -1.514028
 C         2.264698        -0.486481        -1.339008
 O         1.417141        -0.567660        -2.387482
 H        -0.068455         0.625522        -1.015571
 H        -0.125904        -1.104014        -0.642844
 H        -0.438847         0.105248         0.725514
 H         1.135221         1.907169         0.093719
 H         2.310951        -0.617894         2.150978
 H         3.101119        -2.804699         1.136063
 H         2.954631        -2.655450        -1.590520
 H         4.208966         0.102227        -0.812313
 H         4.027258        -0.774803        -2.455942
 H         1.498096         0.144516        -3.045461
