19
Iteration:  4114
 C        -0.000739        -0.184183         0.082522
 C         1.617048        -0.016725         0.024731
 O         1.724492         1.360476         0.239313
 C         2.238286        -0.992297         1.100130
 C         2.949538        -1.987145         0.522330
 C         2.993560        -1.790526        -0.975673
 C         3.768383        -0.536875        -1.426627
 C         2.215110        -0.513242        -1.344360
 O         1.484708        -0.361961        -2.554757
 H        -0.324818        -0.592892        -0.809656
 H        -0.225759        -0.844066         1.001764
 H        -0.377929         0.776147         0.177061
 H         2.625040         1.669274         0.558305
 H         2.104316        -0.628188         2.077920
 H         3.554140        -2.774058         0.980208
 H         3.074084        -2.636427        -1.617022
 H         4.403162         0.013623        -0.803439
 H         4.166934        -0.529774        -2.411202
 H         1.384816         0.629591        -2.692053
