19
Iteration:  1113charge 0 multiplicity 1
 C         0.134345        -0.198324        -0.202194
 C         1.596041         0.083066         0.070433
 O         1.832586         1.483395         0.307530
 C         2.090695        -0.980676         1.065508
 C         2.901838        -1.957515         0.510081
 C         3.010454        -1.857742        -0.944144
 C         3.665637        -0.536436        -1.327874
 C         2.227760        -0.464336        -1.271944
 O         1.459024        -0.517297        -2.459949
 H        -0.271152         0.779981        -0.486603
 H         0.051174        -0.909325        -0.995208
 H        -0.289439        -0.375652         0.764332
 H         2.781469         1.433270         0.206210
 H         1.980218        -0.867890         2.113607
 H         3.391209        -2.769440         0.954262
 H         3.100471        -2.733824        -1.593060
 H         4.372793        -0.004526        -0.646668
 H         4.037291        -0.433490        -2.394941
 H         1.761864         0.179472        -3.056541
