19
Iteration:  4590
 C        -0.039515         0.111703        -0.054335
 C         1.499093        -0.092772         0.029036
 O         2.109721         1.252637         0.406615
 C         1.953316        -1.162313         1.024717
 C         3.118377        -1.844012         0.438845
 C         3.145274        -1.704411        -1.010538
 C         3.669819        -0.279073        -1.507385
 C         2.198056        -0.542165        -1.291477
 O         1.291093        -0.650578        -2.430877
 H        -0.498178        -0.831255         0.037179
 H        -0.513491         0.712916         0.792551
 H        -0.407048         0.537766        -0.919505
 H         2.645257         1.025126         1.224057
 H         1.805661        -1.153569         2.083720
 H         3.884797        -2.395660         0.998255
 H         3.341805        -2.549101        -1.758967
 H         4.109679         0.379243        -0.778568
 H         4.011146        -0.211281        -2.522979
 H         1.784117        -0.190647        -3.095345
