19
Iteration:  1008
 C         0.043669        -0.207976        -0.051686
 C         1.595350         0.005084         0.016047
 O         1.839744         1.443974         0.329448
 C         2.138914        -0.910739         1.038374
 C         2.795703        -1.993604         0.510785
 C         2.901063        -1.820558        -0.991288
 C         3.787341        -0.582494        -1.355935
 C         2.304119        -0.453215        -1.318373
 O         1.557206        -0.347284        -2.487886
 H        -0.262237        -0.173157        -1.133305
 H        -0.337066        -1.210829         0.366958
 H        -0.457997         0.428185         0.669497
 H         2.558688         1.670916        -0.223492
 H         2.037772        -0.717184         2.087288
 H         3.170850        -2.764569         1.144434
 H         2.947279        -2.719728        -1.602441
 H         4.347622        -0.156036        -0.522667
 H         4.299847        -0.294764        -2.317875
 H         1.661270        -1.223034        -2.888531
