19
Iteration:  1523charge 0 multiplicity 1
 C        -0.027056        -0.119063         0.090317
 C         1.572797        -0.038676        -0.050316
 O         2.032731         1.285653         0.218139
 C         2.179666        -0.870016         1.062656
 C         2.837029        -1.941486         0.535497
 C         3.065004        -1.861984        -0.960723
 C         3.636654        -0.532335        -1.321009
 C         2.168582        -0.598917        -1.343577
 O         1.515132        -0.335248        -2.562774
 H        -0.629841         0.470728        -0.538115
 H        -0.386135        -1.096504         0.075670
 H        -0.245861         0.003605         1.136490
 H         1.775809         1.886625        -0.429254
 H         1.896667        -0.926976         2.104239
 H         3.522152        -2.587856         1.107781
 H         3.097659        -2.844891        -1.434178
 H         4.063630        -0.012638        -0.491493
 H         4.224589        -0.317185        -2.184780
 H         1.842460         0.574717        -2.776135
