19
Iteration:  4224charge 0 multiplicity 1
 C         0.011476        -0.225381        -0.006519
 C         1.536000        -0.032106        -0.007267
 O         1.843858         1.346165         0.220730
 C         2.197201        -0.966455         1.081514
 C         3.039108        -1.895424         0.450850
 C         2.890269        -1.773600        -1.035894
 C         3.800003        -0.560513        -1.404067
 C         2.245477        -0.515227        -1.255695
 O         1.449348        -0.347371        -2.431378
 H        -0.350231        -1.025752         0.614893
 H        -0.552098         0.622101         0.414019
 H        -0.477166        -0.379198        -0.972798
 H         2.740746         1.427320         0.691101
 H         2.106151        -0.988331         2.214102
 H         3.590202        -2.645461         1.016414
 H         2.843568        -2.666314        -1.715837
 H         4.459175        -0.170468        -0.662599
 H         4.091260        -0.337723        -2.426517
 H         1.333562         0.619571        -2.466228
