19
Iteration:   203charge 0 multiplicity 1
 C         0.053895        -0.204101        -0.189481
 C         1.605405        -0.029013        -0.035512
 O         1.984318         1.419078         0.071669
 C         2.102648        -1.023540         1.125744
 C         2.884209        -1.983330         0.638037
 C         2.963303        -1.777886        -0.841019
 C         3.646573        -0.469595        -1.422055
 C         2.253813        -0.509998        -1.241979
 O         1.487331        -0.396003        -2.388957
 H        -0.354764        -0.398950         0.774924
 H        -0.210711         0.811342        -0.393511
 H        -0.260905        -1.054376        -0.918383
 H         1.958920         1.571395         1.082719
 H         1.680994        -0.731730         2.079328
 H         3.448070        -2.783223         1.114558
 H         3.063607        -2.521980        -1.603583
 H         4.265862         0.205078        -0.735539
 H         3.889529        -0.719296        -2.424507
 H         1.970747         0.034748        -3.088774
