19
Iteration:  4066charge 0 multiplicity 1
 C         0.019188         0.019566        -0.116528
 C         1.480400        -0.111761         0.030600
 O         2.075093         1.262503         0.375827
 C         2.070662        -1.147374         1.071316
 C         2.980767        -1.880892         0.488752
 C         3.077684        -1.626807        -0.951626
 C         3.613414        -0.214442        -1.460837
 C         2.159012        -0.531357        -1.285836
 O         1.430000        -0.712427        -2.448210
 H        -0.307550        -0.002988        -1.226024
 H        -0.360331        -0.816489         0.379860
 H        -0.245405         1.001953         0.407036
 H         2.891287         1.273566        -0.065058
 H         1.912456        -0.984079         2.151407
 H         3.583268        -2.557177         1.099820
 H         3.019897        -2.422595        -1.718484
 H         4.253344         0.432460        -0.710656
 H         4.179653        -0.177283        -2.459932
 H         1.289373         0.163266        -2.785147
