19
Iteration:  4145charge 0 multiplicity 1
 C         0.014098        -0.479458         0.162185
 C         1.607400         0.055270         0.027770
 O         1.684160         1.474228         0.237417
 C         2.357346        -0.834855         1.053570
 C         2.848419        -1.952031         0.436097
 C         2.800525        -1.820326        -1.063367
 C         3.816970        -0.627084        -1.416384
 C         2.190032        -0.499631        -1.270821
 O         1.637500        -0.286006        -2.511549
 H        -0.086244        -1.362691        -0.413770
 H        -0.200238        -0.646714         1.283682
 H        -0.632775         0.250565        -0.214325
 H         2.611222         1.785129         0.272512
 H         2.353891        -0.418687         2.007034
 H         3.253258        -2.846840         0.931307
 H         2.582011        -2.662941        -1.693098
 H         4.428656        -0.420991        -0.567991
 H         4.104389        -0.562587        -2.442126
 H         1.929176         0.591647        -2.713605
