19
Iteration:   733
 C        -0.030042        -0.058557        -0.046514
 C         1.544355        -0.014350        -0.020925
 O         1.877790         1.288971         0.184976
 C         2.078596        -0.906419         1.102243
 C         2.932787        -1.813961         0.519828
 C         2.976314        -1.858283        -0.940218
 C         3.725262        -0.532687        -1.280931
 C         2.220011        -0.581947        -1.289787
 O         1.609584        -0.463125        -2.515345
 H        -0.546538         0.541656         0.727261
 H        -0.475524         0.181926        -1.044709
 H        -0.286687        -1.206910         0.080131
 H         2.787235         1.444941         0.093146
 H         1.857346        -0.735407         2.128792
 H         3.394060        -2.580030         1.104109
 H         3.059846        -2.703876        -1.586483
 H         4.440951        -0.219507        -0.546079
 H         4.150497        -0.425239        -2.287862
 H         1.566057         0.490422        -2.692158
