19
Iteration:  2276
 C         0.046821        -0.113670         0.218906
 C         1.569368        -0.018290        -0.027239
 O         1.991538         1.373790         0.075191
 C         2.206085        -0.971556         1.085964
 C         2.844857        -1.975024         0.472697
 C         3.030887        -1.775928        -0.957462
 C         3.653498        -0.416435        -1.247282
 C         2.108455        -0.600042        -1.320556
 O         1.500342        -0.490025        -2.558816
 H        -0.634874         0.535487        -0.425584
 H        -0.156573        -1.121786        -0.014631
 H        -0.097796         0.107080         1.301425
 H         2.749815         1.549299        -0.603234
 H         2.177712        -0.865247         2.113138
 H         3.085583        -2.854840         0.983656
 H         3.104482        -2.678415        -1.657790
 H         4.147210         0.055582        -0.435706
 H         3.931083        -0.081940        -2.303965
 H         1.417884         0.471477        -2.709227
