19
Iteration:  3702
 C        -0.028104         0.057413        -0.136507
 C         1.510830        -0.027100         0.089041
 O         1.937805         1.230176         0.538766
 C         2.100543        -0.993391         1.075578
 C         3.035933        -1.807568         0.498554
 C         3.114667        -1.654645        -0.980506
 C         3.606250        -0.381347        -1.529142
 C         2.150486        -0.534367        -1.324452
 O         1.473280        -0.717860        -2.522855
 H        -0.179218         0.479281        -1.106755
 H        -0.382032        -1.080100        -0.150838
 H        -0.450061         0.702435         0.597231
 H         2.857652         1.319996         0.184027
 H         1.935787        -1.025932         2.168406
 H         3.588912        -2.532537         1.054665
 H         3.061127        -2.591162        -1.569544
 H         4.199905         0.180604        -0.799495
 H         4.067994        -0.465402        -2.476191
 H         1.941929        -0.289131        -3.237876
