19
Iteration:  1743charge 0 multiplicity 1
 C         0.001606        -0.053400        -0.079585
 C         1.544898        -0.031682         0.006883
 O         1.963626         1.366801         0.389127
 C         2.199666        -0.903000         1.048472
 C         2.932749        -1.909216         0.517581
 C         3.067071        -1.849117        -0.958142
 C         3.735174        -0.644118        -1.521342
 C         2.181026        -0.518748        -1.339172
 O         1.435617        -0.450110        -2.469768
 H        -0.430469         0.025867        -1.079460
 H        -0.422353        -1.066611         0.276469
 H        -0.412961         0.771327         0.483555
 H         1.338798         1.772320         1.062887
 H         1.874535        -0.792158         2.129907
 H         3.636047        -2.337272         1.199438
 H         2.913619        -2.797624        -1.438357
 H         4.269025        -0.081896        -0.663643
 H         4.116664        -0.665268        -2.545378
 H         1.902447         0.222177        -3.016219
