19
Iteration:  2187charge 0 multiplicity 1
 C         0.098945        -0.224448         0.031039
 C         1.603456         0.034510         0.068242
 O         1.750666         1.402227         0.467423
 C         2.255634        -0.733872         1.001944
 C         2.934635        -1.799928         0.588124
 C         2.847401        -1.856340        -0.994553
 C         3.772422        -0.778364        -1.504083
 C         2.249719        -0.458000        -1.413306
 O         1.462119        -0.458548        -2.623435
 H        -0.297321         0.350322        -0.838928
 H        -0.315310        -1.253664        -0.114700
 H        -0.308128         0.106960         0.947382
 H         2.647521         1.482932         0.973218
 H         2.198745        -0.738590         2.156779
 H         3.583859        -2.430705         1.286140
 H         2.549116        -2.642850        -1.600185
 H         4.378742        -0.401763        -0.656037
 H         4.097612        -0.911437        -2.468389
 H         2.018360        -0.044972        -3.303641
