19
Iteration:  4411
 C         0.100661        -0.305108         0.105256
 C         1.695862        -0.010432         0.075662
 O         1.783404         1.429025         0.153852
 C         2.270263        -1.002501         1.116186
 C         2.895157        -2.086452         0.482973
 C         2.961624        -1.822461        -1.025723
 C         3.650924        -0.369256        -1.438249
 C         2.185499        -0.555971        -1.314862
 O         1.433618        -0.280917        -2.508348
 H        -0.075059        -1.381501         0.297852
 H        -0.174006         0.129662         0.946378
 H        -0.335760         0.241739        -0.763428
 H         2.417013         1.765842         0.907412
 H         2.054777        -0.851144         2.128497
 H         3.240321        -2.939301         0.973650
 H         2.989943        -2.674326        -1.625557
 H         4.303759        -0.005064        -0.564569
 H         4.248811        -0.388251        -2.380459
 H         1.842614         0.374296        -3.054763
