19
Iteration:  4706charge 0 multiplicity 1
 C         0.058308        -0.282375         0.120193
 C         1.589159        -0.035380         0.048790
 O         1.869255         1.367282         0.244484
 C         2.290210        -0.921059         1.052947
 C         2.947772        -1.913623         0.535694
 C         2.840334        -1.892646        -1.003218
 C         3.641530        -0.503516        -1.453860
 C         2.165597        -0.574259        -1.296502
 O         1.580108        -0.173413        -2.521921
 H        -0.052785        -1.418319        -0.006174
 H        -0.346389         0.109481         1.078576
 H        -0.401034         0.346643        -0.769529
 H         2.772624         1.608648        -0.181289
 H         2.081373        -0.831238         2.090159
 H         3.340481        -2.790842         1.075810
 H         3.054081        -2.759277        -1.710797
 H         4.239596        -0.103266        -0.605499
 H         3.832940        -0.122300        -2.458728
 H         1.009399        -0.843399        -2.904081
