19
Iteration:  4183charge 0 multiplicity 1
 C         0.188963        -0.374342         0.032217
 C         1.730080        -0.033189         0.030497
 O         1.606734         1.389107         0.216516
 C         2.310852        -0.842921         1.108219
 C         2.893506        -1.964497         0.529472
 C         2.810769        -1.833817        -1.000125
 C         3.737314        -0.674236        -1.460568
 C         2.253646        -0.551140        -1.301542
 O         1.520488        -0.125667        -2.462256
 H         0.100985        -1.500627         0.388783
 H        -0.274668         0.282912         0.758775
 H        -0.295904        -0.464979        -1.046161
 H         2.378133         1.854895         0.025441
 H         2.067934        -0.650206         2.195794
 H         3.067895        -2.938617         1.025987
 H         2.729677        -2.774847        -1.631768
 H         4.512941        -0.218041        -0.782762
 H         4.104082        -0.536940        -2.527648
 H         1.578942         0.840979        -2.516163
