19
Iteration:  1911charge 0 multiplicity 1
 C         0.115121        -0.136591        -0.128223
 C         1.579604         0.070024        -0.001474
 O         1.935787         1.417965         0.314519
 C         2.188556        -0.985841         1.121449
 C         2.907085        -1.958201         0.543097
 C         2.909253        -1.756762        -0.964793
 C         3.699305        -0.522821        -1.462905
 C         2.155679        -0.500515        -1.248341
 O         1.469533        -0.522791        -2.478137
 H        -0.264356         0.136010        -1.107538
 H        -0.099790        -1.159597        -0.120900
 H        -0.451142         0.222351         0.764578
 H         2.959448         1.465047         0.147087
 H         2.288726        -0.680897         2.207143
 H         3.435007        -2.793279         0.950601
 H         2.813967        -2.660371        -1.525987
 H         4.602434        -0.270900        -0.870279
 H         3.848140        -0.517506        -2.516994
 H         0.838445         0.238625        -2.395332
