19
Iteration:  2953
 C         0.068897        -0.220762        -0.146476
 C         1.602888        -0.011448         0.114089
 O         1.804144         1.361890         0.332108
 C         2.229751        -0.911072         1.099159
 C         2.971795        -1.849850         0.528832
 C         2.951551        -1.744944        -0.922668
 C         3.744800        -0.563494        -1.544633
 C         2.258798        -0.463131        -1.255592
 O         1.404928        -0.520958        -2.445495
 H        -0.309422         0.500844        -0.877444
 H        -0.031489        -1.211004        -0.677650
 H        -0.524275        -0.022966         0.705793
 H         2.786705         1.611851         0.125807
 H         1.920935        -0.751489         2.142710
 H         3.527013        -2.641463         1.043394
 H         2.702371        -2.612475        -1.487659
 H         4.463587        -0.075847        -0.846232
 H         3.973293        -0.591952        -2.625871
 H         1.313746         0.325089        -2.933447
