19
Iteration:  2510
 C         0.076478        -0.177340        -0.087205
 C         1.577431        -0.024596         0.073118
 O         1.786648         1.416328         0.233877
 C         2.299895        -0.841023         1.098947
 C         2.965931        -1.909359         0.629779
 C         2.905099        -1.882771        -0.931948
 C         3.682938        -0.673899        -1.569158
 C         2.220236        -0.562544        -1.238918
 O         1.465974        -0.314335        -2.430770
 H        -0.218290         0.204877        -1.060276
 H        -0.161723        -1.257969        -0.233341
 H        -0.407348         0.320517         0.692104
 H         2.679890         1.506565         0.551631
 H         1.990326        -0.829828         2.090152
 H         3.676992        -2.552915         1.061539
 H         2.534433        -2.774996        -1.531464
 H         4.415989        -0.015077        -1.131163
 H         3.736835        -0.673886        -2.711255
 H         2.081298         0.115606        -3.047307
