19
Iteration:  4966
 C         0.092678        -0.153732         0.118656
 C         1.570676        -0.062776        -0.062993
 O         1.898554         1.344958         0.251541
 C         2.165453        -0.944985         1.035131
 C         2.934977        -1.949698         0.518038
 C         2.982336        -1.739905        -0.982807
 C         3.692203        -0.407584        -1.404642
 C         2.194073        -0.448629        -1.340526
 O         1.417305        -0.576343        -2.472024
 H        -0.464380         0.541122        -0.515252
 H        -0.258740        -1.106726        -0.095539
 H        -0.140480         0.121519         1.195441
 H         2.810369         1.587332        -0.187212
 H         2.012962        -0.794008         2.147869
 H         3.397211        -2.804099         1.013173
 H         3.241800        -2.470311        -1.697255
 H         4.239546        -0.088878        -0.468939
 H         4.345721        -0.304485        -2.284811
 H         1.279949         0.313163        -2.935189
