19
Iteration:  4862
 C         0.078468        -0.062823         0.078422
 C         1.574759         0.033729         0.082947
 O         1.930772         1.377870         0.349517
 C         2.064482        -1.073562         1.025089
 C         2.933630        -2.021807         0.472411
 C         3.112363        -1.669871        -1.027192
 C         3.696712        -0.299354        -1.544897
 C         2.145679        -0.509913        -1.293468
 O         1.390901        -0.642194        -2.481484
 H        -0.311719        -0.325757        -0.933629
 H        -0.404604        -0.858356         0.874496
 H        -0.377807         0.917757         0.287095
 H         2.806815         1.425913         0.562827
 H         1.839448        -1.107382         2.147303
 H         3.526206        -2.807965         1.054447
 H         3.060538        -2.561892        -1.690046
 H         4.375785         0.152519        -0.861597
 H         4.123830        -0.251021        -2.532118
 H         2.046592        -0.302127        -3.098315
