19
Iteration:  1073charge 0 multiplicity 1
 C        -0.026200        -0.128533         0.073992
 C         1.498924        -0.090616        -0.030619
 O         1.843881         1.333972         0.091374
 C         2.105901        -0.959261         1.061813
 C         2.870604        -1.950556         0.536782
 C         3.079148        -1.831843        -0.959062
 C         3.794024        -0.546031        -1.249319
 C         2.257544        -0.545503        -1.294533
 O         1.569954        -0.280140        -2.547900
 H        -0.557794         0.384649        -0.761767
 H        -0.546687        -1.160276         0.018543
 H        -0.279448         0.297431         1.032443
 H         2.828538         1.507961        -0.063044
 H         1.936346        -0.712874         2.093239
 H         3.253904        -2.737509         1.178299
 H         3.509889        -2.626278        -1.561543
 H         4.404962        -0.203866        -0.440474
 H         4.155615        -0.498511        -2.336602
 H         0.828421         0.328018        -2.316687
