19
Iteration:   208
 C         0.017369        -0.197930        -0.192784
 C         1.586097        -0.044991        -0.028880
 O         1.991857         1.407522         0.060081
 C         2.079931        -1.023104         1.072043
 C         2.926705        -1.982497         0.646059
 C         2.995778        -1.794285        -0.828823
 C         3.682108        -0.450270        -1.392606
 C         2.213911        -0.503795        -1.205230
 O         1.476298        -0.381228        -2.385680
 H        -0.350172        -0.332275         0.884308
 H        -0.409840         0.782243        -0.603035
 H        -0.152611        -1.040489        -0.773360
 H         2.210775         1.561572         0.984255
 H         1.706098        -0.738634         2.067381
 H         3.299472        -2.889131         1.159394
 H         2.956483        -2.605984        -1.604594
 H         4.403197         0.176159        -0.969361
 H         3.903433        -0.633855        -2.489902
 H         2.034656         0.075246        -3.065447
