19
Iteration:  4067
 C         0.023240         0.015072        -0.119547
 C         1.482621        -0.107614         0.026985
 O         2.072544         1.259673         0.371195
 C         2.069122        -1.149669         1.065822
 C         2.976806        -1.871747         0.486069
 C         3.077755        -1.626780        -0.949702
 C         3.616224        -0.215944        -1.458922
 C         2.158182        -0.533198        -1.281385
 O         1.429024        -0.707649        -2.440865
 H        -0.300950        -0.002796        -1.219867
 H        -0.339158        -0.821766         0.407995
 H        -0.250470         0.975454         0.378382
 H         2.886169         1.267954        -0.062631
 H         1.929102        -0.966036         2.151371
 H         3.593250        -2.579635         1.117282
 H         3.015467        -2.428015        -1.740124
 H         4.251401         0.393515        -0.687094
 H         4.158893        -0.185094        -2.482883
 H         1.294589         0.188188        -2.754943
