19
Iteration:  3899charge 0 multiplicity 1
 C         0.130564        -0.282922         0.177924
 C         1.594977         0.006425         0.050485
 O         1.741105         1.383654         0.199935
 C         2.342092        -0.873069         1.094891
 C         2.841231        -1.922101         0.488676
 C         2.880184        -1.866356        -1.003680
 C         3.724261        -0.573642        -1.363408
 C         2.249691        -0.558123        -1.345227
 O         1.573259        -0.307196        -2.624964
 H        -0.401002        -0.073768        -0.721641
 H         0.099127        -1.411589         0.621141
 H        -0.102478         0.376528         1.038810
 H         0.910966         1.772976         0.255266
 H         2.223885        -0.627018         2.112362
 H         3.296614        -2.851129         0.995536
 H         2.949107        -2.703378        -1.743387
 H         4.414133        -0.170125        -0.730434
 H         4.104693        -0.531202        -2.383247
 H         1.436341         0.646172        -2.632555
