19
Iteration:  1037
 C        -0.057493        -0.119917         0.146866
 C         1.542991        -0.078258         0.032223
 O         1.769520         1.368863         0.164287
 C         2.192397        -0.975301         1.060132
 C         2.862682        -1.961621         0.539103
 C         2.951984        -1.842555        -0.989900
 C         3.683669        -0.551523        -1.303501
 C         2.212763        -0.475014        -1.329159
 O         1.798820        -0.291390        -2.624609
 H        -0.543154        -0.092158        -0.844205
 H        -0.280353        -0.997125         0.702979
 H        -0.387247         0.744785         0.750913
 H         2.765486         1.461664         0.033150
 H         2.026793        -0.769534         2.131401
 H         3.224433        -2.816946         1.097697
 H         3.149370        -2.682480        -1.665118
 H         4.467397        -0.195667        -0.542775
 H         4.068478        -0.403015        -2.286390
 H         0.865429        -0.619880        -2.674103
