19
Iteration:   781charge 0 multiplicity 1
 C         0.073251        -0.159262         0.004637
 C         1.630249         0.022395         0.051019
 O         1.799025         1.481991         0.113041
 C         2.120544        -0.853238         1.103605
 C         2.653503        -1.951566         0.429042
 C         3.095965        -1.852518        -0.957013
 C         3.784389        -0.549887        -1.330838
 C         2.288153        -0.609099        -1.272090
 O         1.611789        -0.431694        -2.461408
 H        -0.302703         0.702330         0.586849
 H        -0.444355        -0.078886        -0.996045
 H        -0.244466        -1.028834         0.495860
 H         2.813943         1.685117         0.119765
 H         1.691739        -0.925422         2.131503
 H         2.712208        -2.943858         0.938256
 H         3.278718        -2.657364        -1.685644
 H         4.260642         0.010892        -0.458002
 H         4.212919        -0.298304        -2.293226
 H         0.815291        -1.012529        -2.394745
