19
Iteration:  2737charge 0 multiplicity 1
 C        -0.060927        -0.203182         0.153810
 C         1.502422        -0.085999         0.091884
 O         1.970624         1.457674        -0.037577
 C         2.231572        -0.958234         1.000736
 C         3.006533        -1.985416         0.538732
 C         2.973518        -1.804908        -0.930517
 C         3.668158        -0.503220        -1.380790
 C         2.049026        -0.647151        -1.239198
 O         1.561199        -0.289494        -2.478435
 H        -0.635301         0.745772        -0.036563
 H        -0.465841        -1.010016        -0.595881
 H        -0.419607        -0.507759         1.132705
 H         2.933566         1.271618        -0.149358
 H         2.190186        -0.917083         2.115729
 H         3.474901        -2.732697         1.208270
 H         3.169669        -2.680302        -1.526130
 H         4.374256         0.029407        -0.662347
 H         3.959021        -0.488393        -2.425496
 H         1.578153         0.670901        -2.413485
