19
Iteration:   570
 C         0.009071        -0.030683        -0.097806
 C         1.530377        -0.039375        -0.023234
 O         2.021650         1.262576         0.281844
 C         1.995736        -1.040013         1.074147
 C         2.957711        -1.879032         0.604270
 C         3.042200        -1.743663        -0.905216
 C         3.704231        -0.452081        -1.454710
 C         2.200446        -0.578732        -1.251787
 O         1.622282        -0.393786        -2.503979
 H        -0.488107         0.791911         0.379485
 H        -0.264167         0.005643        -1.162434
 H        -0.482836        -1.024241         0.232958
 H         1.372717         1.829117        -0.221056
 H         1.604557        -0.946417         2.140814
 H         3.600865        -2.600059         1.172640
 H         3.026194        -2.703132        -1.448231
 H         4.298162         0.245693        -0.844468
 H         4.087194        -0.588304        -2.459125
 H         0.797076        -0.935160        -2.364311
