19
Iteration:  4917
 C         0.003514         0.093277        -0.080470
 C         1.565939        -0.107165         0.000972
 O         1.913896         1.269090         0.390188
 C         2.158765        -1.080936         1.064654
 C         3.151875        -1.879145         0.550864
 C         3.113927        -1.735978        -0.932161
 C         3.620803        -0.372102        -1.493123
 C         2.138583        -0.587932        -1.345782
 O         1.395404        -0.563667        -2.513525
 H        -0.487857         0.127859        -1.098062
 H        -0.634597        -0.760922         0.452890
 H        -0.263916         1.040243         0.395465
 H         2.843240         1.305792         0.600083
 H         1.882105        -1.127612         2.072449
 H         3.799115        -2.603058         1.083172
 H         3.121588        -2.679831        -1.559887
 H         4.126084         0.470185        -1.066483
 H         3.863580        -0.423269        -2.544409
 H         0.876751         0.203506        -2.323842
