19
Iteration:  4552charge 0 multiplicity 1
 C         0.084946        -0.016064        -0.017309
 C         1.561736        -0.091761         0.021853
 O         1.987147         1.276508         0.286320
 C         2.103004        -1.041074         1.082458
 C         2.909651        -1.985602         0.439517
 C         3.159910        -1.751263        -1.030152
 C         3.666083        -0.231243        -1.436020
 C         2.206000        -0.565422        -1.350292
 O         1.271823        -0.470792        -2.402611
 H        -0.203505        -1.092213        -0.352667
 H        -0.318761         0.049879         0.984481
 H        -0.232102         0.911509        -0.679990
 H         2.574748         1.319888         1.148207
 H         2.035277        -0.882529         2.241907
 H         3.412206        -2.673648         1.160633
 H         3.612614        -2.535667        -1.570833
 H         4.170533         0.491845        -0.755157
 H         4.071656        -0.435031        -2.484544
 H         1.542030        -1.044785        -3.138301
