19
Iteration:  4989charge 0 multiplicity 1
 C         0.079441        -0.290867         0.087048
 C         1.641985         0.061786         0.066160
 O         1.850959         1.486394         0.249433
 C         2.340600        -0.865081         1.075757
 C         2.812983        -1.958054         0.468603
 C         2.971369        -1.861471        -0.931581
 C         3.690627        -0.416693        -1.395281
 C         2.184239        -0.617123        -1.250446
 O         1.388063        -0.480293        -2.607941
 H        -0.582662         0.463321        -0.222570
 H        -0.105741        -1.136136        -0.508070
 H        -0.183348        -0.547253         1.107502
 H         2.712401         1.804516        -0.069750
 H         2.129183        -0.922927         2.162734
 H         3.302822        -2.876201         0.836943
 H         2.936445        -2.623483        -1.701381
 H         4.255327         0.231329        -0.713953
 H         4.170850        -0.447557        -2.373582
 H         1.989626         0.141484        -3.007387
