19
Iteration:    81charge 0 multiplicity 1
 C         0.002688        -0.086695        -0.161423
 C         1.577309        -0.033040         0.007760
 O         2.034108         1.308417         0.165199
 C         2.207004        -0.985557         1.106397
 C         2.920135        -1.918383         0.528837
 C         3.070151        -1.782600        -0.929426
 C         3.723635        -0.475496        -1.287896
 C         2.229241        -0.551812        -1.310297
 O         1.317011        -0.431272        -2.395212
 H        -0.404206         0.524697         0.690633
 H        -0.250267         0.282163        -1.184743
 H        -0.296441        -1.114840        -0.040932
 H         1.366245         1.907016         0.409743
 H         1.661636        -1.114599         2.076134
 H         3.357458        -2.841924         0.987221
 H         3.078747        -2.597390        -1.686254
 H         4.104381         0.130323        -0.491255
 H         4.330819        -0.495170        -2.264218
 H         1.790897         0.096317        -3.043749
