19
Iteration:  1418
 C         0.040621        -0.085179         0.008760
 C         1.515138        -0.060803         0.010316
 O         2.087802         1.300132         0.244170
 C         2.020781        -1.049990         1.074115
 C         2.938487        -1.855907         0.520483
 C         3.058244        -1.774777        -0.934219
 C         3.661303        -0.511249        -1.379339
 C         2.188737        -0.491664        -1.340957
 O         1.473302        -0.465622        -2.490923
 H        -0.442471         0.514179        -0.802325
 H        -0.378779        -1.136021        -0.227335
 H        -0.332014         0.472662         0.846405
 H         1.511130         2.028482         0.140771
 H         1.849443        -1.103436         2.116659
 H         3.587308        -2.580778         1.016740
 H         3.084089        -2.702255        -1.506662
 H         4.163245         0.083026        -0.581673
 H         4.210031        -0.477989        -2.343475
 H         1.810590         0.307655        -3.002859
