19
Iteration:  4775charge 0 multiplicity 1
 C         0.105598        -0.324517         0.063314
 C         1.591126        -0.031880        -0.010895
 O         1.713525         1.432017         0.303192
 C         2.286881        -0.922720         1.115732
 C         2.862110        -2.039274         0.531109
 C         2.964999        -1.818186        -1.033699
 C         3.728493        -0.656237        -1.501138
 C         2.279653        -0.460146        -1.277360
 O         1.519590        -0.221551        -2.522236
 H        -0.101981        -1.396450         0.009531
 H        -0.304897         0.256370         1.046510
 H        -0.388293         0.116381        -0.826311
 H         2.665964         1.709230         0.025288
 H         2.334986        -0.473326         2.167373
 H         3.415425        -2.827839         1.068518
 H         2.898058        -2.696937        -1.620686
 H         4.400058        -0.019741        -0.972392
 H         3.842762        -0.501632        -2.554372
 H         0.793379         0.316934        -2.267935
