19
Iteration:  1627
 C        -0.025631        -0.092138        -0.149557
 C         1.517633        -0.021515        -0.002505
 O         1.996352         1.312038         0.414625
 C         2.207765        -0.869698         1.055952
 C         2.940380        -1.889981         0.578293
 C         2.962860        -1.833476        -0.953511
 C         3.680630        -0.567692        -1.447406
 C         2.150336        -0.585602        -1.243028
 O         1.524399        -0.399791        -2.470351
 H        -0.617158         0.754185        -0.569344
 H        -0.115471        -0.903346        -0.901511
 H        -0.492712        -0.361069         0.805862
 H         1.895838         2.001439        -0.313596
 H         1.941877        -0.770183         2.136801
 H         3.740735        -2.426577         1.086044
 H         2.757278        -2.718790        -1.544935
 H         4.531199        -0.011004        -0.922979
 H         3.785294        -0.629390        -2.510118
 H         2.149167        -0.399874        -3.201306
