19
Iteration:  3854charge 0 multiplicity 1
 C         0.178585        -0.355885        -0.083648
 C         1.610505         0.019318         0.044941
 O         1.877397         1.364839         0.180940
 C         2.200287        -0.856136         1.104189
 C         2.926988        -1.858688         0.530113
 C         2.871472        -1.822816        -1.031984
 C         3.695330        -0.610987        -1.496023
 C         2.249636        -0.537289        -1.238377
 O         1.453512        -0.288065        -2.330549
 H        -0.232913        -0.216078        -1.092191
 H         0.146956        -1.554475         0.225609
 H        -0.488025         0.064191         0.663859
 H         1.059625         1.778848         0.198771
 H         2.328226        -0.659039         2.172170
 H         3.332442        -2.630962         1.111172
 H         2.654064        -2.773270        -1.511284
 H         4.352248        -0.109430        -0.851791
 H         4.021545        -0.484712        -2.471999
 H         1.854434         0.443699        -2.781596
