19
Iteration:  3771charge 0 multiplicity 1
 C        -0.046576        -0.099561        -0.010896
 C         1.538477        -0.008857         0.032543
 O         2.126642         1.340776         0.185653
 C         2.105573        -1.036742         1.080482
 C         2.932479        -2.041126         0.521269
 C         3.111664        -1.666060        -0.910785
 C         3.590274        -0.281775        -1.390748
 C         2.171319        -0.443257        -1.324840
 O         1.472582        -0.712966        -2.544766
 H        -0.341107         0.879030        -0.394279
 H        -0.270983        -0.896941        -0.663477
 H        -0.387597        -0.186923         1.053439
 H         1.782621         1.805125         1.056299
 H         1.989721        -0.875493         2.134984
 H         3.570192        -2.688611         1.178394
 H         3.175636        -2.410121        -1.698741
 H         4.017342         0.324593        -0.611008
 H         4.248087        -0.357695        -2.355384
 H         0.913086         0.088454        -2.711664
