19
Iteration:  2017charge 0 multiplicity 1
 C         0.129037        -0.103817        -0.156482
 C         1.644403        -0.037910        -0.000352
 O         1.902566         1.404787         0.287888
 C         2.163760        -1.027982         1.090242
 C         2.940337        -1.899852         0.546588
 C         2.940645        -1.796684        -0.948913
 C         3.748528        -0.517874        -1.469734
 C         2.247176        -0.542867        -1.329539
 O         1.280799        -0.351011        -2.377733
 H        -0.563468         0.499783        -0.841496
 H        -0.051998        -1.156405        -0.271414
 H        -0.327887         0.192543         0.867523
 H         2.918333         1.508675         0.486404
 H         2.071287        -0.541992         2.134631
 H         3.439101        -2.761500         1.013122
 H         2.908862        -2.726765        -1.470216
 H         4.442538        -0.007640        -0.724325
 H         4.270218        -0.736521        -2.400148
 H         1.297428        -1.184331        -2.919393
