19
Iteration:  2036charge 0 multiplicity 1
 C         0.105525        -0.110834        -0.088805
 C         1.585781         0.063390        -0.002230
 O         1.840016         1.414915         0.489330
 C         2.185244        -0.872216         0.985001
 C         2.900522        -1.880807         0.526754
 C         3.015206        -1.781374        -0.976542
 C         3.797765        -0.732818        -1.543142
 C         2.274046        -0.498831        -1.327593
 O         1.326847        -0.446398        -2.401627
 H        -0.160551         0.564405        -0.917126
 H        -0.180445        -1.150241        -0.359165
 H        -0.468452         0.241381         0.706777
 H         2.837637         1.609881         0.374375
 H         1.843553        -0.970576         2.020492
 H         3.542509        -2.591396         1.079024
 H         2.941717        -2.595866        -1.690212
 H         4.470424        -0.207708        -0.877060
 H         4.161158        -0.510438        -2.583391
 H         1.080591        -1.302675        -2.810204
