19
Iteration:  4568
 C         0.036063         0.029203        -0.049593
 C         1.561939        -0.107457         0.034228
 O         2.039800         1.222260         0.277918
 C         2.070927        -1.105846         1.049957
 C         3.067056        -1.963954         0.490783
 C         3.162192        -1.620443        -0.931795
 C         3.612778        -0.278024        -1.499361
 C         2.159257        -0.546973        -1.286053
 O         1.297301        -0.505411        -2.407345
 H        -0.588715        -0.792508        -0.205219
 H        -0.397678         0.549476         0.849434
 H        -0.139379         0.731128        -0.794386
 H         2.592370         1.309258         1.073007
 H         1.649673        -1.295994         1.995658
 H         3.511509        -2.876157         0.901909
 H         3.269576        -2.501391        -1.671756
 H         4.110806         0.407342        -0.825188
 H         3.842265        -0.250845        -2.524125
 H         1.825717        -0.820218        -3.206200
