19
Iteration:  1778charge 0 multiplicity 1
 C         0.092175        -0.116763        -0.129819
 C         1.578435        -0.075848         0.021961
 O         2.034172         1.331912         0.241135
 C         2.146119        -0.949892         1.172210
 C         2.873735        -1.969559         0.554617
 C         3.002839        -1.755014        -0.905535
 C         3.700299        -0.526502        -1.524545
 C         2.223722        -0.528204        -1.284457
 O         1.346389        -0.372656        -2.366646
 H        -0.208988         0.528853        -0.995542
 H        -0.166640        -1.197048        -0.298604
 H        -0.401018         0.157624         0.788909
 H         1.325388         1.864629        -0.269809
 H         1.841311        -1.027731         2.183390
 H         3.688312        -2.561093         1.013366
 H         2.988974        -2.627669        -1.566085
 H         4.351521         0.088729        -0.839986
 H         4.278998        -0.544166        -2.497387
 H         1.918645        -0.157938        -3.134381
