19
Iteration:   239charge 0 multiplicity 1
 C         0.012166        -0.121567        -0.056684
 C         1.551721        -0.117085        -0.026370
 O         1.870669         1.354980         0.251496
 C         2.055245        -0.895891         1.098309
 C         2.865542        -1.863666         0.542401
 C         3.027315        -1.830033        -0.957727
 C         3.778341        -0.512120        -1.310979
 C         2.242430        -0.569900        -1.372666
 O         1.483085        -0.435397        -2.485642
 H        -0.197369         0.627655         0.738558
 H        -0.334114         0.187025        -1.046762
 H        -0.522996        -1.074834         0.069492
 H         2.892772         1.344827         0.301706
 H         1.746512        -0.692966         2.108546
 H         3.538987        -2.571538         1.049739
 H         3.351149        -2.736544        -1.527627
 H         4.293038         0.121716        -0.651937
 H         4.484588        -0.562186        -2.178061
 H         1.797120         0.373491        -2.896630
