19
Iteration:  3081charge 0 multiplicity 1
 C         0.045664        -0.115948        -0.047209
 C         1.552739        -0.003552        -0.039360
 O         1.952791         1.359587         0.401601
 C         2.185965        -0.943600         1.065210
 C         2.972869        -1.904312         0.522055
 C         3.083607        -1.790256        -0.974721
 C         3.729797        -0.492363        -1.452059
 C         2.191395        -0.569855        -1.255344
 O         1.387191        -0.556596        -2.494657
 H        -0.349306         0.692056        -0.602693
 H        -0.445435        -1.107576        -0.469665
 H        -0.429644        -0.126261         0.971272
 H         1.506969         1.901539        -0.207619
 H         2.081916        -0.464996         2.027702
 H         3.693275        -2.545611         1.028539
 H         3.059253        -2.640861        -1.589646
 H         4.177652         0.274031        -0.766967
 H         3.866229        -0.466621        -2.477135
 H         1.375338         0.274764        -3.021974
