19
Iteration:  3868charge 0 multiplicity 1
 C         0.078128        -0.479126        -0.043200
 C         1.601804         0.011788        -0.012347
 O         1.914617         1.450814         0.187530
 C         2.332176        -0.804003         1.037466
 C         2.876230        -1.963257         0.469905
 C         2.831077        -1.846843        -0.949152
 C         3.728089        -0.613441        -1.360186
 C         2.240575        -0.460990        -1.244589
 O         1.454030        -0.296457        -2.385918
 H        -0.328894        -0.484563        -1.042779
 H         0.091649        -1.551628         0.366472
 H        -0.407917         0.232457         0.676295
 H         1.055460         2.029531         0.162523
 H         2.210357        -0.516500         2.044592
 H         3.522784        -2.688743         1.069116
 H         2.744567        -2.549402        -1.790937
 H         4.507453        -0.282150        -0.700836
 H         4.007643        -0.614759        -2.477963
 H         1.559411         0.642467        -2.687951
