19
Iteration:  1979charge 0 multiplicity 1
 C        -0.037276        -0.009126         0.203877
 C         1.518827        -0.070344         0.028392
 O         1.960175         1.366202         0.076897
 C         2.176647        -0.984510         1.026195
 C         2.940588        -1.923122         0.494489
 C         3.025301        -1.859361        -0.961831
 C         3.633750        -0.410701        -1.337083
 C         2.169120        -0.637162        -1.317176
 O         1.498876        -0.382887        -2.490271
 H        -0.481477         0.701146        -0.437470
 H        -0.395173        -1.045006        -0.091856
 H        -0.182340         0.107461         1.258732
 H         2.910504         1.412057         0.231203
 H         2.143088        -0.733141         2.076381
 H         3.281346        -2.868766         0.888622
 H         3.233750        -2.670106        -1.704334
 H         4.141669        -0.178295        -0.407094
 H         4.042700        -0.230016        -2.340794
 H         1.944969        -0.680222        -3.289839
