19
Iteration:  3577
 C        -0.001459        -0.347517         0.127084
 C         1.566676        -0.040274         0.010184
 O         1.779876         1.425528         0.226566
 C         2.218624        -0.846020         1.034933
 C         2.921252        -1.873361         0.550915
 C         2.878613        -1.830505        -0.987009
 C         3.765786        -0.666073        -1.476153
 C         2.288055        -0.487033        -1.278570
 O         1.577179        -0.315116        -2.541395
 H        -0.444216         0.101492        -0.910014
 H        -0.125243        -1.387567         0.176228
 H        -0.364783         0.307129         1.004865
 H         1.449425         1.597858         1.165266
 H         2.288569        -0.455212         2.086036
 H         3.675282        -2.405046         1.011699
 H         2.886609        -2.707538        -1.599221
 H         4.497876        -0.307813        -0.687808
 H         3.888386        -0.766415        -2.513718
 H         1.996740         0.161774        -3.261312
