19
Iteration:  3896
 C         0.105295        -0.306178         0.171706
 C         1.601220         0.023886         0.063860
 O         1.760706         1.384195         0.198553
 C         2.345733        -0.852623         1.124689
 C         2.857504        -1.939593         0.477692
 C         2.872228        -1.876876        -0.998490
 C         3.757724        -0.596068        -1.363665
 C         2.242861        -0.558470        -1.356122
 O         1.550496        -0.294325        -2.637453
 H        -0.399540        -0.194911        -0.789443
 H         0.115213        -1.368302         0.548186
 H        -0.214813         0.323532         0.963322
 H         0.880042         1.833526         0.238970
 H         2.379672        -0.642589         2.208407
 H         3.158130        -2.766003         1.023089
 H         2.916201        -2.617732        -1.782910
 H         4.389158        -0.056498        -0.663575
 H         4.152059        -0.519091        -2.322103
 H         1.372307         0.653223        -2.630336
