19
Iteration:  1512charge 0 multiplicity 1
 C        -0.023008        -0.144448         0.131980
 C         1.463247        -0.021455        -0.033665
 O         2.015538         1.289950         0.309074
 C         2.175538        -0.877505         1.000064
 C         2.871626        -1.891017         0.535413
 C         2.997700        -1.831841        -0.962351
 C         3.800581        -0.534264        -1.344375
 C         2.136276        -0.663994        -1.341108
 O         1.522307        -0.368552        -2.593412
 H        -0.456664         0.633324        -0.451111
 H        -0.299767        -1.045390        -0.313101
 H        -0.310384         0.143807         1.126401
 H         1.854131         1.939838        -0.433112
 H         1.989775        -0.610650         2.056341
 H         3.267646        -2.636775         1.252826
 H         3.169434        -2.750590        -1.537961
 H         4.447690        -0.115123        -0.595357
 H         4.027996        -0.474019        -2.383518
 H         1.758020         0.550026        -2.787887
