19
Iteration:   171
 C        -0.034987        -0.123337        -0.026554
 C         1.556261         0.032180        -0.053386
 O         1.935611         1.401713         0.352748
 C         2.198147        -0.818798         1.002792
 C         2.890393        -1.946581         0.535204
 C         3.014755        -1.817029        -0.958006
 C         3.811777        -0.626292        -1.283530
 C         2.292459        -0.527710        -1.298535
 O         1.460725        -0.553575        -2.582568
 H        -0.380093        -0.655524         0.831306
 H        -0.559401         0.829712        -0.051292
 H        -0.541495        -0.531287        -1.009826
 H         1.163410         1.907446         0.286967
 H         2.031877        -0.486424         2.029901
 H         3.164262        -2.830806         1.112381
 H         2.973638        -2.627748        -1.653089
 H         4.448378        -0.172914        -0.446363
 H         4.201473        -0.625564        -2.275941
 H         1.535645         0.358460        -2.945950
