19
Iteration:  2828
 C         0.119072        -0.202231        -0.148920
 C         1.620334        -0.014113        -0.043577
 O         1.878436         1.325653         0.381007
 C         2.181503        -0.935366         1.072900
 C         2.940140        -1.847416         0.538638
 C         2.981937        -1.751749        -0.935040
 C         3.714239        -0.550241        -1.525897
 C         2.253220        -0.390310        -1.309421
 O         1.331929        -0.541431        -2.406915
 H        -0.372921         0.311932        -1.066825
 H        -0.221131        -1.218354        -0.027539
 H        -0.215223         0.388159         0.804151
 H         2.837049         1.450683         0.729285
 H         1.898236        -0.769375         2.083505
 H         3.389898        -2.617114         1.195433
 H         2.886811        -2.693983        -1.571260
 H         4.412926        -0.019043        -0.838299
 H         4.060497        -0.548305        -2.522193
 H         1.340718         0.273027        -2.935910
