19
Iteration:  3283charge 0 multiplicity 1
 C         0.156574        -0.396059        -0.066216
 C         1.653993        -0.020047        -0.013862
 O         1.858214         1.451879         0.158479
 C         2.288185        -0.871591         1.001444
 C         2.847287        -1.931922         0.591306
 C         2.979513        -1.802768        -0.889474
 C         3.742949        -0.648016        -1.442100
 C         2.273400        -0.423380        -1.313892
 O         1.329723        -0.337168        -2.391946
 H        -0.440216         0.183777        -0.890254
 H        -0.007492        -1.402654        -0.267072
 H        -0.441234        -0.213576         0.860002
 H         1.439199         1.698883         1.044882
 H         2.203861        -0.563443         2.046001
 H         3.214791        -2.781172         1.261472
 H         2.899344        -2.640785        -1.536710
 H         4.333095         0.069324        -0.766707
 H         4.270099        -0.774430        -2.344822
 H         1.334965         0.530266        -2.865704
