19
Iteration:  4649
 C         0.080407         0.044566         0.012131
 C         1.511253        -0.043157         0.085628
 O         1.952798         1.323047         0.377274
 C         2.082530        -1.061945         1.013512
 C         2.933551        -1.936390         0.386595
 C         3.192127        -1.683163        -1.016124
 C         3.629906        -0.365342        -1.482631
 C         2.208685        -0.528679        -1.249191
 O         1.434252        -0.618648        -2.444878
 H        -0.239471        -0.871587        -0.620474
 H        -0.379371         0.041953         0.987686
 H        -0.156999         0.983668        -0.604500
 H         2.896420         1.500469         0.083056
 H         1.840477        -1.205365         2.096864
 H         3.379156        -2.830326         0.875586
 H         3.106699        -2.419557        -1.779006
 H         4.364880         0.219928        -0.844023
 H         3.992848        -0.453427        -2.553507
 H         0.457026        -0.539009        -2.335835
