19
Iteration:  3978charge 0 multiplicity 1
 C         0.026704        -0.114477        -0.163732
 C         1.589573        -0.037380         0.009947
 O         2.072212         1.327824         0.267739
 C         2.143865        -0.955896         1.091923
 C         2.969197        -1.933424         0.563957
 C         3.080101        -1.758922        -0.944658
 C         3.603199        -0.285908        -1.495012
 C         2.192004        -0.587849        -1.305199
 O         1.335294        -0.590929        -2.421144
 H        -0.431096         0.923976        -0.131588
 H        -0.193212        -0.610317        -1.061716
 H        -0.605647        -0.696123         0.604353
 H         2.099841         1.355179         1.185177
 H         2.069598        -1.021663         2.165225
 H         3.614515        -2.543283         1.181714
 H         3.436312        -2.572941        -1.498159
 H         4.214344         0.230866        -0.638236
 H         3.882710        -0.297440        -2.558532
 H         1.252532         0.331247        -2.667497
