19
Iteration:   292
 C         0.008141        -0.117012         0.004474
 C         1.518054         0.024333         0.041078
 O         1.879653         1.425257         0.334186
 C         2.019126        -0.978773         1.045865
 C         2.792149        -1.903387         0.494061
 C         2.990466        -1.769048        -0.996126
 C         3.876141        -0.444885        -1.366331
 C         2.243498        -0.515181        -1.304322
 O         1.641164        -0.620205        -2.571350
 H        -0.511030         0.773601         0.435902
 H        -0.402273        -0.342428        -0.974004
 H        -0.421346        -0.927858         0.687422
 H         2.823476         1.546476        -0.093676
 H         1.877828        -0.864742         2.106916
 H         3.252814        -2.768497         0.957995
 H         2.935586        -2.656059        -1.684347
 H         4.520318        -0.102150        -0.583484
 H         4.341627        -0.365121        -2.401458
 H         0.995918         0.083042        -2.465109
