19
Iteration:  4036
 C         0.012275         0.226628         0.060154
 C         1.464803        -0.038417         0.017191
 O         1.940698         1.238224         0.538742
 C         2.003445        -1.061321         0.980654
 C         3.018291        -1.857198         0.451102
 C         3.255588        -1.610406        -0.972131
 C         3.639844        -0.269452        -1.501559
 C         2.162153        -0.642285        -1.353197
 O         1.439468        -0.857346        -2.575219
 H        -0.435445         0.703131        -0.841792
 H        -0.444540        -0.785401         0.009103
 H        -0.225447         0.684109         0.996478
 H         2.925284         1.374842         0.231240
 H         1.882291        -1.064219         2.093423
 H         3.352844        -2.769900         1.093140
 H         3.414443        -2.568535        -1.583678
 H         4.228402         0.395610        -0.824935
 H         4.200570        -0.254425        -2.492477
 H         1.450359         0.013979        -3.061954
