19
Iteration:  2744charge 0 multiplicity 1
 C        -0.131106        -0.196643         0.194728
 C         1.489127        -0.092697         0.033562
 O         1.960852         1.409509        -0.031915
 C         2.241529        -0.999795         1.081555
 C         2.988133        -1.916355         0.534163
 C         2.983009        -1.799823        -0.967580
 C         3.696183        -0.533115        -1.381630
 C         2.133612        -0.613516        -1.235984
 O         1.549437        -0.289421        -2.514929
 H        -0.582728         0.718255         0.068260
 H        -0.432085        -0.881036        -0.602389
 H        -0.207754        -0.493692         1.251578
 H         2.878595         1.315090        -0.029727
 H         2.165215        -0.629181         2.076445
 H         3.457876        -2.708832         1.158199
 H         3.014023        -2.783556        -1.594960
 H         4.310986        -0.011651        -0.575863
 H         3.910891        -0.504388        -2.414546
 H         1.626130         0.692854        -2.488026
