19
Iteration:  2992
 C        -0.010858        -0.157349         0.082497
 C         1.463281        -0.082830         0.016803
 O         1.777838         1.271858         0.206645
 C         2.279223        -0.865494         1.031892
 C         3.037741        -1.832614         0.557577
 C         3.022944        -1.887293        -0.909203
 C         3.707622        -0.621384        -1.424398
 C         2.190852        -0.519902        -1.354305
 O         1.483276        -0.309254        -2.566931
 H        -0.228540         0.405138        -0.801278
 H        -0.378565        -1.253075         0.067476
 H        -0.366853         0.398775         1.050832
 H         1.974048         1.416074         1.103684
 H         2.348199        -0.509140         2.083765
 H         3.868207        -2.364139         1.035848
 H         2.903303        -2.905879        -1.330757
 H         4.405372        -0.036293        -0.921526
 H         4.172423        -0.661911        -2.471687
 H         1.939317         0.518733        -2.854916
