19
Iteration:  3834
 C         0.058588        -0.238685        -0.043282
 C         1.593725        -0.052761         0.037945
 O         1.840317         1.406562         0.220179
 C         2.284762        -0.905530         1.150435
 C         2.991690        -1.939303         0.596971
 C         3.002269        -1.818144        -0.905394
 C         3.731001        -0.622105        -1.517178
 C         2.255376        -0.526362        -1.282555
 O         1.382140        -0.282890        -2.502225
 H        -0.362929         0.407145        -0.754631
 H        -0.433019        -1.264130        -0.276752
 H        -0.425179         0.059615         0.906373
 H         0.946571         1.860747         0.345900
 H         1.961939        -0.951110         2.164984
 H         3.549879        -2.712723         1.108404
 H         3.049385        -2.678394        -1.574545
 H         4.490793        -0.071618        -1.027095
 H         3.854907        -0.883323        -2.553530
 H         1.917947         0.306257        -3.049493
