19
Iteration:  2213charge 0 multiplicity 1
 C         0.070837        -0.202720        -0.067310
 C         1.622935         0.064775         0.007938
 O         1.750096         1.500686         0.317188
 C         2.260280        -0.852783         1.119487
 C         2.901459        -1.899219         0.572501
 C         2.909516        -1.842445        -0.905178
 C         3.695095        -0.722802        -1.619562
 C         2.275895        -0.556204        -1.299271
 O         1.530122        -0.416177        -2.469373
 H        -0.507038         0.366028        -0.770602
 H        -0.158200        -1.196870        -0.312123
 H        -0.332588        -0.178042         0.969312
 H         2.562045         1.572756         0.966034
 H         2.113033        -0.972879         2.131069
 H         3.592696        -2.563441         1.024846
 H         2.725019        -2.791340        -1.533094
 H         4.449300        -0.184557        -1.088138
 H         3.684248        -0.988048        -2.740591
 H         1.666430         0.540277        -2.697564
