19
Iteration:   308
 C        -0.019070        -0.085695        -0.012730
 C         1.597527        -0.016344        -0.095775
 O         1.857100         1.328600         0.252232
 C         2.105482        -0.990787         0.987239
 C         2.815594        -1.967983         0.573813
 C         3.091834        -1.709952        -0.868723
 C         3.743812        -0.530231        -1.324165
 C         2.304740        -0.451523        -1.320754
 O         1.503231        -0.514022        -2.499127
 H        -0.334049         0.878264         0.381587
 H        -0.405917        -0.433806        -0.995229
 H        -0.197375        -0.942738         0.597136
 H         2.883562         1.377118         0.257884
 H         1.588111        -0.906390         1.957833
 H         3.277352        -2.755685         1.177896
 H         3.118962        -2.401056        -1.689769
 H         4.299727         0.154975        -0.617565
 H         4.181999        -0.507255        -2.272637
 H         1.256025         0.340284        -2.897290
