19
Iteration:   255
 C         0.014480        -0.011685        -0.058245
 C         1.561016         0.007814        -0.074268
 O         1.798337         1.290049         0.348568
 C         2.147987        -0.947202         1.002324
 C         2.945693        -1.997025         0.585188
 C         3.000124        -1.773064        -0.855163
 C         3.729310        -0.503780        -1.305932
 C         2.215396        -0.545674        -1.302729
 O         1.561443        -0.514049        -2.633882
 H        -0.313419         0.846317         0.519670
 H        -0.426776         0.080229        -1.075697
 H        -0.197653        -0.999473         0.424122
 H         2.657086         1.617962        -0.140985
 H         2.113142        -0.668799         2.083491
 H         3.399902        -2.713788         1.261756
 H         2.874040        -2.515227        -1.615684
 H         4.323104        -0.071529        -0.405429
 H         4.126619        -0.360069        -2.293606
 H         1.429856         0.416157        -2.870829
