19
Iteration:  4700
 C         0.060366        -0.257931         0.073235
 C         1.620552        -0.064437         0.062105
 O         1.896054         1.357236         0.241626
 C         2.256427        -0.914965         1.078713
 C         2.955262        -1.909101         0.509148
 C         2.926175        -1.822876        -1.017851
 C         3.640235        -0.537562        -1.426345
 C         2.128582        -0.612240        -1.289552
 O         1.535493        -0.173164        -2.533708
 H        -0.201675        -1.267251        -0.100780
 H        -0.186891         0.040754         1.139652
 H        -0.438957         0.342095        -0.595147
 H         2.655027         1.617487        -0.189037
 H         2.031505        -0.854590         2.154251
 H         3.342473        -2.722920         1.071267
 H         2.963729        -2.716861        -1.572423
 H         4.121635        -0.163468        -0.558107
 H         3.922966        -0.092248        -2.379150
 H         0.951584        -0.875987        -2.955756
