19
Iteration:  3262
 C         0.140229        -0.301022        -0.186692
 C         1.611788         0.051349         0.070395
 O         1.819775         1.444344         0.234118
 C         2.304115        -0.867282         1.131506
 C         2.926155        -1.857725         0.539209
 C         2.908894        -1.863010        -0.964812
 C         3.745793        -0.598176        -1.547595
 C         2.224961        -0.585339        -1.203355
 O         1.398973        -0.384177        -2.368004
 H        -0.373872         0.156669        -1.144765
 H         0.009603        -1.365870        -0.209246
 H        -0.489461         0.027594         0.707688
 H         1.257831         1.912187         0.928844
 H         2.152925        -0.733803         2.207073
 H         3.513673        -2.762369         0.909466
 H         2.859879        -2.648439        -1.668762
 H         4.508269        -0.127074        -0.826372
 H         4.008596        -0.557880        -2.594926
 H         1.822781         0.206125        -3.008398
