19
Iteration:  2136charge 0 multiplicity 1
 C         0.109971        -0.107039         0.001631
 C         1.612463        -0.038440         0.075848
 O         1.882416         1.396606         0.047862
 C         2.158592        -1.001996         1.169601
 C         2.886621        -1.970446         0.522853
 C         3.033668        -1.772381        -0.984680
 C         3.720448        -0.491807        -1.400426
 C         2.184854        -0.587038        -1.292316
 O         1.424414        -0.406144        -2.402509
 H        -0.475705         0.485413        -0.753943
 H        -0.117381        -1.127873        -0.119047
 H        -0.286330         0.201276         1.006601
 H         2.711524         1.565646        -0.362709
 H         1.769618        -1.108454         2.247565
 H         3.328614        -2.943060         0.807468
 H         3.157611        -2.739770        -1.486002
 H         4.274616         0.114100        -0.571782
 H         4.073674        -0.389865        -2.434015
 H         1.286615         0.535846        -2.554291
