19
Iteration:  3788charge 0 multiplicity 1
 C        -0.000431        -0.080002         0.059315
 C         1.532572        -0.013980         0.029236
 O         2.064926         1.311313         0.249623
 C         2.141190        -0.935863         1.068466
 C         2.983553        -1.856519         0.442325
 C         2.958299        -1.709242        -0.991293
 C         3.755921        -0.381699        -1.342128
 C         2.114850        -0.546924        -1.304955
 O         1.516836        -0.692264        -2.547087
 H        -0.637490         0.777432        -0.203111
 H        -0.308606        -0.893330        -0.751125
 H        -0.444250        -0.439438         0.977278
 H         1.398255         1.874181         0.785477
 H         1.971068        -0.923337         2.210949
 H         3.444626        -2.706385         0.918317
 H         2.955727        -2.572663        -1.655768
 H         4.221552         0.166509        -0.513677
 H         3.967713        -0.290708        -2.330999
 H         1.419600         0.194878        -2.997649
