19
Iteration:  1884charge 0 multiplicity 1
 C         0.071183        -0.122534        -0.083180
 C         1.591320        -0.030405        -0.045241
 O         1.904050         1.361017         0.257939
 C         2.227920        -0.822986         1.089949
 C         2.913048        -1.905733         0.522523
 C         2.981742        -1.806940        -0.950906
 C         3.763644        -0.602893        -1.427198
 C         2.177842        -0.592033        -1.337048
 O         1.360909        -0.418595        -2.428191
 H        -0.303063         0.621972        -0.849363
 H        -0.263940        -1.142697        -0.534221
 H        -0.326216         0.046795         0.914598
 H         2.732005         1.312570         0.871739
 H         1.944131        -0.882667         2.138170
 H         3.679939        -2.536953         1.057288
 H         2.900377        -2.780623        -1.489702
 H         4.385920        -0.147187        -0.635322
 H         4.241495        -0.705271        -2.436577
 H         1.157537         0.549584        -2.327536
