19
Iteration:  1629
 C        -0.033635        -0.089945        -0.150925
 C         1.514396        -0.020073        -0.004083
 O         1.990093         1.318111         0.401160
 C         2.203207        -0.870628         1.072574
 C         2.941266        -1.897654         0.565053
 C         2.980427        -1.833788        -0.964613
 C         3.667499        -0.582604        -1.436902
 C         2.170511        -0.580912        -1.243009
 O         1.517338        -0.399224        -2.460816
 H        -0.592574         0.815884        -0.572524
 H        -0.135498        -0.881034        -0.871248
 H        -0.502394        -0.407174         0.853595
 H         1.963356         1.953681        -0.292572
 H         1.978101        -0.765184         2.101743
 H         3.734078        -2.394231         1.133720
 H         2.786381        -2.710923        -1.576915
 H         4.419554        -0.013266        -0.923409
 H         3.854400        -0.614569        -2.526567
 H         2.166532        -0.368462        -3.196835
