19
Iteration:  3664charge 0 multiplicity 1
 C        -0.027582        -0.090406         0.001206
 C         1.500697         0.005119         0.025739
 O         1.899873         1.356601         0.354685
 C         2.122603        -0.967910         1.064481
 C         2.956863        -1.899685         0.472279
 C         3.087481        -1.776065        -0.932090
 C         3.771767        -0.479117        -1.426726
 C         2.246501        -0.534262        -1.378824
 O         1.440572        -0.576545        -2.500683
 H        -0.635126         0.676879        -0.636184
 H        -0.340131        -1.043509        -0.342514
 H        -0.469566        -0.171201         1.053151
 H         2.425435         1.774255        -0.423715
 H         2.062810        -0.801622         2.161611
 H         3.587782        -2.547223         1.087464
 H         3.170025        -2.553017        -1.647799
 H         4.246298         0.130272        -0.604275
 H         4.439151        -0.615210        -2.307210
 H         1.278006         0.380675        -2.697675
