19
Iteration:  2303charge 0 multiplicity 1
 C        -0.025425         0.029949         0.325753
 C         1.529544        -0.059472         0.048999
 O         1.875063         1.382658         0.257435
 C         2.107917        -1.022926         1.028625
 C         2.908646        -1.939415         0.481983
 C         2.988606        -1.774021        -0.988840
 C         3.742474        -0.424486        -1.489759
 C         2.206107        -0.488501        -1.390059
 O         1.569604        -0.636771        -2.612159
 H        -0.341734         0.337736        -0.630595
 H        -0.456329        -1.035448         0.287328
 H        -0.196770         0.652484         1.188781
 H         2.902142         1.483238         0.317755
 H         2.117382        -0.887012         2.199007
 H         3.397658        -2.742267         1.127803
 H         2.981509        -2.616538        -1.625297
 H         4.397363         0.023935        -0.680839
 H         4.028887        -0.446582        -2.500713
 H         1.668916         0.246995        -2.998804
