19
Iteration:  2169
 C         0.044468        -0.155940        -0.013091
 C         1.562439         0.040572        -0.042273
 O         1.776367         1.391088         0.388143
 C         2.326487        -0.833239         1.087791
 C         2.896387        -1.916670         0.481217
 C         2.844136        -1.807685        -0.949902
 C         3.779400        -0.646282        -1.457575
 C         2.198937        -0.510821        -1.320734
 O         1.503468        -0.473239        -2.493640
 H        -0.570987         0.299251        -0.803860
 H        -0.166754        -1.187795         0.004180
 H        -0.298187         0.149859         1.005609
 H         2.779653         1.626255         0.419244
 H         2.355470        -0.302893         2.040872
 H         3.429377        -2.766027         0.862107
 H         2.786717        -2.742209        -1.558684
 H         4.388635        -0.135748        -0.674014
 H         4.145257        -0.739045        -2.534544
 H         1.949963        -0.113082        -3.276731
