19
Iteration:  1923charge 0 multiplicity 1
 C         0.023265        -0.120199        -0.004162
 C         1.584529         0.037387         0.045317
 O         1.926805         1.456913         0.341813
 C         2.225536        -0.901743         1.074795
 C         2.818221        -1.989091         0.461085
 C         2.993846        -1.810258        -0.955886
 C         3.677316        -0.533146        -1.502321
 C         2.212570        -0.579078        -1.262115
 O         1.532050        -0.546298        -2.496168
 H        -0.446855         0.393266        -0.818452
 H        -0.067699        -1.176432        -0.018594
 H        -0.472473         0.418764         0.834553
 H         2.733531         1.631680        -0.109022
 H         1.886723        -0.923092         2.181122
 H         3.420235        -2.617633         1.083252
 H         2.873959        -2.554784        -1.726118
 H         4.394721         0.043697        -0.807720
 H         3.872202        -0.551186        -2.510202
 H         1.156968         0.326299        -2.698475
