19
Iteration:  1659
 C         0.049999        -0.021486        -0.002707
 C         1.555065        -0.063197        -0.057834
 O         1.885144         1.341324         0.184582
 C         2.173162        -0.975063         1.058309
 C         2.900676        -1.988869         0.545982
 C         3.014526        -1.748654        -0.937622
 C         3.842202        -0.507491        -1.264083
 C         2.258376        -0.609409        -1.305865
 O         1.315606        -0.411164        -2.463214
 H        -0.222233         0.954063        -0.408129
 H        -0.269563        -0.879064        -0.625162
 H        -0.307665        -0.344675         0.944240
 H         2.567839         1.655261        -0.451792
 H         1.682151        -0.866133         2.062206
 H         3.390680        -2.735022         1.136018
 H         3.061362        -2.647239        -1.542024
 H         4.592652         0.034201        -0.569057
 H         4.155566        -0.546630        -2.278107
 H         1.714549         0.270560        -3.023720
