19
Iteration:   474
 C         0.025555        -0.073781         0.049544
 C         1.545722        -0.111787        -0.046217
 O         1.811238         1.291919         0.098712
 C         2.094699        -0.920791         1.064193
 C         2.901136        -1.860178         0.613552
 C         3.092429        -1.879166        -0.847987
 C         3.680988        -0.598097        -1.329000
 C         2.205422        -0.592640        -1.325895
 O         1.651471        -0.259475        -2.573738
 H        -0.364693        -0.629792         0.870000
 H        -0.371662         0.912064         0.085792
 H        -0.564927        -0.392853        -0.851326
 H         2.618326         1.461670         0.521492
 H         1.976171        -0.450774         2.111598
 H         3.499755        -2.601269         1.215419
 H         3.373802        -2.652955        -1.564278
 H         4.328263         0.084246        -0.754521
 H         3.998997        -0.560530        -2.428912
 H         0.668979        -0.441058        -2.535549
