19
Iteration:   151
 C         0.014348        -0.062237         0.042588
 C         1.525040         0.043354         0.007041
 O         1.842588         1.410016         0.392360
 C         2.124415        -0.879180         1.024739
 C         2.850812        -1.956055         0.477128
 C         2.903122        -1.829060        -0.952695
 C         3.764807        -0.566631        -1.418521
 C         2.292906        -0.545240        -1.297745
 O         1.696955        -0.587329        -2.580354
 H        -0.127424        -0.698455         0.916818
 H        -0.487643         0.909498         0.172055
 H        -0.434010        -0.699929        -0.839704
 H         1.915749         1.851796        -0.462933
 H         2.095856        -0.556051         2.057869
 H         3.592886        -2.439406         1.111400
 H         2.750720        -2.676026        -1.614557
 H         4.190952         0.012332        -0.539127
 H         4.174757        -0.659044        -2.382834
 H         1.111675         0.137110        -2.782378
