19
Iteration:   778
 C         0.059116        -0.150980        -0.006183
 C         1.670949         0.053525         0.052715
 O         1.809361         1.472134         0.107628
 C         2.115443        -0.853228         1.108604
 C         2.659485        -1.973696         0.432845
 C         3.106000        -1.849514        -0.961542
 C         3.773688        -0.545076        -1.300185
 C         2.294813        -0.604041        -1.285001
 O         1.601899        -0.437343        -2.464590
 H        -0.306476         0.713000         0.597379
 H        -0.563978        -0.182557        -0.961797
 H        -0.274062        -1.112551         0.486132
 H         2.699985         1.755574         0.159360
 H         1.696100        -0.955971         2.110650
 H         2.628775        -2.981750         0.938794
 H         3.346335        -2.675111        -1.674123
 H         4.197253         0.040215        -0.530425
 H         4.185160        -0.344672        -2.365919
 H         0.779292        -0.916348        -2.332652
