19
Iteration:   610charge 0 multiplicity 1
 C        -0.064179         0.053136         0.033417
 C         1.499143        -0.030358        -0.006058
 O         1.988823         1.262637         0.179930
 C         2.041626        -0.991971         0.973196
 C         2.940166        -1.926552         0.573741
 C         3.081772        -1.771180        -0.892902
 C         3.707797        -0.440703        -1.238955
 C         2.231459        -0.674840        -1.359170
 O         1.604010        -0.459244        -2.610948
 H        -0.350307         0.741006         0.902122
 H        -0.429690         0.418052        -0.955297
 H        -0.351209        -1.006889         0.118603
 H         1.505726         1.664961         0.915783
 H         1.959998        -0.714833         2.060935
 H         3.628379        -2.458791         1.291919
 H         3.477713        -2.484561        -1.665869
 H         3.992485         0.343012        -0.624862
 H         4.277354        -0.533934        -2.199904
 H         0.676001        -0.629838        -2.741174
