19
Iteration:  1197charge 0 multiplicity 1
 C         0.051861        -0.053120        -0.140991
 C         1.555919        -0.073365         0.014330
 O         1.947408         1.283998         0.211495
 C         2.091671        -0.977646         1.104285
 C         2.839831        -1.985869         0.524276
 C         3.103174        -1.715086        -0.979789
 C         3.675387        -0.413537        -1.289521
 C         2.230551        -0.526545        -1.277544
 O         1.500890        -0.514873        -2.455324
 H        -0.250431         0.418138        -1.100692
 H        -0.467774        -0.977601        -0.016441
 H        -0.547000         0.511241         0.674231
 H         2.810936         1.398721        -0.224063
 H         1.858685        -0.718303         2.112749
 H         3.410742        -2.697593         1.035744
 H         3.166635        -2.474531        -1.751606
 H         4.077160         0.084000        -0.426002
 H         4.260134        -0.465760        -2.183533
 H         1.043590         0.359366        -2.461557
