19
Iteration:  2060
 C         0.021167        -0.030809        -0.058775
 C         1.573030         0.101761        -0.011400
 O         1.807850         1.381238         0.474163
 C         2.238221        -0.957428         1.159962
 C         2.918941        -1.914323         0.550536
 C         2.910572        -1.797092        -0.978314
 C         3.687535        -0.587474        -1.619171
 C         2.245440        -0.517481        -1.290479
 O         1.579318        -0.528028        -2.554601
 H        -0.496334         0.749134        -0.710352
 H        -0.330255        -1.014187        -0.238734
 H        -0.274730         0.291989         0.972702
 H         2.772770         1.649674         0.362605
 H         2.406632        -0.844224         2.316163
 H         3.547675        -2.752260         0.894502
 H         2.797267        -2.555954        -1.712493
 H         4.557754        -0.051681        -1.096515
 H         3.878391        -0.609935        -2.660519
 H         0.919606        -1.263925        -2.646841
