19
Iteration:   469
 C         0.023354        -0.084814         0.047828
 C         1.564051        -0.104002        -0.022844
 O         1.807947         1.304331         0.085723
 C         2.058293        -0.918832         1.037667
 C         2.912931        -1.894728         0.617171
 C         3.092781        -1.872865        -0.850048
 C         3.668611        -0.571992        -1.315155
 C         2.210173        -0.586346        -1.355258
 O         1.638882        -0.268574        -2.577807
 H        -0.477277        -0.657387         0.890108
 H        -0.395967         0.963978         0.154484
 H        -0.418226        -0.455544        -0.882298
 H         2.721337         1.271059         0.571673
 H         2.177197        -0.422300         1.944429
 H         3.591259        -2.404848         1.263083
 H         3.330690        -2.762606        -1.452317
 H         4.353039        -0.023147        -0.664127
 H         4.018187        -0.597372        -2.301245
 H         0.702621        -0.269787        -2.358948
