19
Iteration:  3348
 C        -0.046271        -0.102888         0.261369
 C         1.539191        -0.152675         0.031782
 O         1.846839         1.365552         0.061588
 C         2.256643        -1.005037         1.049934
 C         2.939586        -1.915936         0.446104
 C         3.023458        -1.759345        -1.028887
 C         3.727275        -0.461530        -1.287679
 C         2.209261        -0.571692        -1.321166
 O         1.518920        -0.464786        -2.560352
 H        -0.333722         0.898041        -0.252424
 H        -0.525790        -0.970552         0.022387
 H        -0.129622         0.245373         1.298227
 H         1.217822         1.700418         0.639709
 H         2.183718        -0.804345         2.099058
 H         3.642041        -2.671448         0.944666
 H         3.193621        -2.603035        -1.707981
 H         4.201080         0.093778        -0.459424
 H         4.267533        -0.195397        -2.172376
 H         1.755611         0.323652        -3.046767
