19
Iteration:   946
 C        -0.037444         0.011776        -0.093999
 C         1.504270        -0.050680         0.022613
 O         1.934825         1.317355         0.253215
 C         2.051777        -0.976192         1.020899
 C         2.975930        -1.884235         0.563634
 C         3.003132        -1.740888        -0.900121
 C         3.717967        -0.546336        -1.381716
 C         2.189243        -0.613553        -1.273930
 O         1.583333        -0.488929        -2.490192
 H        -0.451310         1.007212         0.029388
 H        -0.319312        -0.481696        -1.057033
 H        -0.580183        -0.479570         0.762501
 H         2.805459         1.253745        -0.048484
 H         1.752070        -0.809484         2.034049
 H         3.545228        -2.471567         1.290976
 H         3.055687        -2.727237        -1.379906
 H         4.208731         0.067580        -0.709813
 H         3.971566        -0.513597        -2.505979
 H         1.975995         0.305646        -2.893424
