19
Iteration:  1296
 C         0.023018        -0.145187        -0.172407
 C         1.654397         0.030593        -0.069915
 O         1.820187         1.401609         0.310521
 C         2.184134        -0.893101         1.060405
 C         3.041234        -1.854393         0.602645
 C         2.952032        -1.911428        -0.871445
 C         3.743616        -0.673473        -1.363507
 C         2.188339        -0.572305        -1.293867
 O         1.437300        -0.342697        -2.527099
 H        -0.307973         0.612816        -0.912030
 H        -0.226773        -1.150875        -0.543964
 H        -0.699359         0.021452         0.692614
 H         2.169895         1.321717         1.242782
 H         1.846343        -0.853069         2.143857
 H         3.696393        -2.636753         1.097541
 H         2.945560        -2.757609        -1.562511
 H         4.408036        -0.189787        -0.702400
 H         4.009340        -0.709834        -2.446906
 H         1.709517         0.446217        -3.030356
