19
Iteration:  2013
 C         0.112325        -0.107085        -0.106685
 C         1.625053        -0.086884         0.040878
 O         1.934799         1.400825         0.235864
 C         2.147481        -0.982379         1.080196
 C         2.945720        -1.938242         0.541803
 C         2.939202        -1.780641        -0.919810
 C         3.689897        -0.502904        -1.459307
 C         2.261041        -0.526645        -1.324939
 O         1.311328        -0.348129        -2.384679
 H        -0.358442         0.527070        -0.837591
 H        -0.166875        -1.197280        -0.314091
 H        -0.374664         0.144947         0.768204
 H         2.824234         1.475038         0.467053
 H         2.158051        -0.620672         2.052959
 H         3.435512        -2.793232         0.996746
 H         3.045703        -2.691705        -1.552072
 H         4.342668        -0.028498        -0.792989
 H         4.293698        -0.652189        -2.420258
 H         1.318471        -1.086766        -2.991030
