19
Iteration:  1039charge 0 multiplicity 1
 C        -0.050482        -0.118009         0.160963
 C         1.543665        -0.082445         0.021328
 O         1.766726         1.370255         0.157904
 C         2.172503        -0.977246         1.053241
 C         2.884364        -1.963540         0.540904
 C         2.944982        -1.863562        -0.981958
 C         3.676171        -0.551336        -1.304589
 C         2.222812        -0.468690        -1.323334
 O         1.799267        -0.288763        -2.625817
 H        -0.562816        -0.049877        -0.828987
 H        -0.265519        -1.051363         0.704182
 H        -0.320661         0.771455         0.690153
 H         2.777311         1.490422         0.051087
 H         2.000672        -0.794086         2.094957
 H         3.234788        -2.786504         1.101725
 H         3.178253        -2.693227        -1.638030
 H         4.359412        -0.186874        -0.511762
 H         4.077144        -0.340101        -2.317367
 H         0.855472        -0.548032        -2.650505
