19
Iteration:  4272
 C        -0.018262         0.065867         0.083575
 C         1.496727        -0.055512         0.090954
 O         1.998284         1.299853         0.422287
 C         2.136426        -1.143775         1.052661
 C         2.906924        -1.993841         0.431217
 C         3.142126        -1.642752        -0.982137
 C         3.618479        -0.233575        -1.482955
 C         2.204760        -0.533778        -1.347523
 O         1.485816        -0.696492        -2.563250
 H        -0.588226        -0.781769         0.675953
 H        -0.461639         0.944944         0.599045
 H        -0.551191         0.043654        -0.934724
 H         2.738675         1.601705        -0.017219
 H         1.686079        -1.132797         2.017113
 H         3.453596        -2.866329         0.840780
 H         3.165805        -2.433218        -1.691342
 H         4.158334         0.346283        -0.667938
 H         4.240104        -0.220843        -2.408706
 H         1.682267         0.091066        -3.085081
