19
Iteration:  3527
 C         0.132282        -0.180736        -0.144803
 C         1.594055         0.002535        -0.023965
 O         1.837521         1.368086         0.352930
 C         2.214236        -0.896413         1.055435
 C         2.888586        -1.922063         0.533999
 C         3.043181        -1.781907        -0.968620
 C         3.773372        -0.549952        -1.444326
 C         2.235694        -0.559435        -1.250219
 O         1.361740        -0.474096        -2.423112
 H        -0.320463         0.344316        -0.901703
 H        -0.009146        -1.324078        -0.289668
 H        -0.200856         0.053968         0.896107
 H         1.414940         1.993603        -0.197019
 H         2.405202        -0.639083         2.082469
 H         3.532970        -2.568578         1.173005
 H         2.946109        -2.607193        -1.629676
 H         4.290914         0.060901        -0.673963
 H         4.030435        -0.602485        -2.499301
 H         1.257432         0.445893        -2.703808
