19
Iteration:  2130charge 0 multiplicity 1
 C         0.072818        -0.107112         0.014420
 C         1.621695        -0.053175         0.042307
 O         1.908283         1.360785         0.013898
 C         2.123282        -1.032918         1.141258
 C         2.899704        -1.952726         0.545931
 C         3.010916        -1.722832        -0.969612
 C         3.725881        -0.461185        -1.373561
 C         2.220390        -0.597859        -1.292589
 O         1.399264        -0.401067        -2.403584
 H        -0.450804         0.542670        -0.662957
 H        -0.157417        -1.222696        -0.089153
 H        -0.176125         0.242601         1.039003
 H         2.799480         1.419253        -0.360833
 H         1.963626        -1.035438         2.171389
 H         3.077399        -2.952107         0.935009
 H         3.344219        -2.623234        -1.535211
 H         4.332834         0.049510        -0.706757
 H         4.188986        -0.384627        -2.376690
 H         1.169758         0.552716        -2.264189
