19
Iteration:  1394
 C        -0.119436         0.017762         0.154537
 C         1.547519        -0.086419         0.013082
 O         2.069261         1.266991         0.136905
 C         2.125911        -1.001178         0.999879
 C         2.929008        -1.964980         0.547942
 C         3.064389        -1.765596        -0.969987
 C         3.661194        -0.381818        -1.301381
 C         2.123536        -0.673341        -1.302148
 O         1.617185        -0.478744        -2.566707
 H        -0.577450         0.752639        -0.560264
 H        -0.621175        -0.912228        -0.175302
 H        -0.479506         0.508115         1.095451
 H         1.239704         1.875518         0.095724
 H         2.166936        -0.796860         2.115064
 H         3.326748        -2.910624         1.064296
 H         3.052801        -2.508109        -1.767914
 H         4.187767         0.198070        -0.489839
 H         4.008022        -0.211312        -2.250729
 H         1.855744         0.454487        -2.742489
