19
Iteration:  3452charge 0 multiplicity 1
 C        -0.050755         0.126229         0.118258
 C         1.467865        -0.060738         0.007873
 O         1.882019         1.317921         0.297541
 C         2.149487        -1.017720         1.063126
 C         3.008941        -1.867034         0.504198
 C         3.200462        -1.666908        -1.020819
 C         3.744227        -0.398250        -1.436953
 C         2.202273        -0.645067        -1.339780
 O         1.432940        -0.712320        -2.567560
 H        -0.144895         1.084056        -0.086775
 H        -0.729556        -0.534920        -0.593771
 H        -0.262280        -0.212235         1.101335
 H         2.468310         1.220590         1.090741
 H         1.791964        -0.975172         2.116082
 H         3.543496        -2.747636         0.893709
 H         3.259710        -2.574230        -1.490401
 H         4.028617         0.350292        -0.671398
 H         3.927605        -0.232856        -2.448122
 H         1.521580         0.085386        -3.132099
