19
Iteration:   483
 C        -0.042737        -0.075527         0.007318
 C         1.497161        -0.064628        -0.069806
 O         1.820021         1.325111         0.131090
 C         2.165277        -0.878279         1.137625
 C         2.926627        -1.892789         0.618054
 C         3.055543        -1.845451        -0.896410
 C         3.732554        -0.566473        -1.394934
 C         2.220100        -0.635044        -1.283503
 O         1.657095        -0.266134        -2.551063
 H        -0.220938        -0.603289         0.885009
 H        -0.200132         0.956893         0.182561
 H        -0.591448        -0.592797        -0.814808
 H         2.671564         1.549699         0.404628
 H         1.651575        -0.973777         2.129037
 H         3.232683        -2.785909         1.201754
 H         3.183567        -2.827676        -1.441238
 H         4.201304         0.106815        -0.741960
 H         4.044763        -0.652062        -2.474733
 H         0.859220        -0.802772        -2.821299
