19
Iteration:  2243
 C         0.104357        -0.164469        -0.052080
 C         1.615843        -0.008850        -0.024833
 O         1.846025         1.375144         0.064655
 C         2.263926        -0.921278         1.128250
 C         2.888314        -1.931126         0.501779
 C         2.935511        -1.782096        -0.931162
 C         3.798422        -0.602645        -1.336549
 C         2.248488        -0.571495        -1.312749
 O         1.340360        -0.370419        -2.344970
 H        -0.480441         0.639466        -0.584735
 H        -0.165423        -1.121986        -0.422708
 H        -0.318230        -0.193658         0.951223
 H         2.744756         1.568262        -0.137128
 H         2.199115        -0.787519         2.190268
 H         3.338584        -2.790533         0.973513
 H         2.892466        -2.618262        -1.637038
 H         4.438543        -0.202831        -0.563890
 H         4.190096        -0.506850        -2.364629
 H         1.028734         0.533429        -2.376720
