19
Iteration:  4704charge 0 multiplicity 1
 C         0.053818        -0.274251         0.109098
 C         1.603020        -0.047846         0.058035
 O         1.877641         1.363160         0.244381
 C         2.282526        -0.922595         1.055476
 C         2.947567        -1.900988         0.531408
 C         2.864744        -1.868965        -1.007665
 C         3.639617        -0.517968        -1.449649
 C         2.153244        -0.591628        -1.293218
 O         1.563773        -0.173716        -2.528148
 H        -0.094015        -1.381162        -0.045265
 H        -0.251301         0.072686         1.040048
 H        -0.420464         0.360829        -0.725581
 H         2.776019         1.645539        -0.202922
 H         2.052889        -0.849402         2.132468
 H         3.343174        -2.801705         1.099701
 H         3.040885        -2.752206        -1.672365
 H         4.209276        -0.117220        -0.539644
 H         3.851749        -0.066858        -2.444749
 H         1.009695        -0.827655        -2.926092
