19
Iteration:  1611
 C         0.044774        -0.184511        -0.142072
 C         1.583588         0.009660         0.024358
 O         1.999403         1.297912         0.455028
 C         2.108566        -0.914268         1.089849
 C         2.974361        -1.824754         0.574221
 C         2.851573        -1.788606        -0.873608
 C         3.717783        -0.572473        -1.524679
 C         2.252547        -0.505538        -1.323023
 O         1.455872        -0.408347        -2.547648
 H        -0.193633         0.690563        -0.698538
 H        -0.298831        -1.071536        -0.647159
 H        -0.428352        -0.138090         0.841789
 H         1.391348         1.920896         0.084604
 H         2.075123        -0.537812         2.073948
 H         3.262668        -2.695872         1.144452
 H         2.937199        -2.730729        -1.425914
 H         4.373461        -0.217397        -0.800099
 H         4.191026        -0.625898        -2.537306
 H         2.123059        -0.647366        -3.228040
