19
Iteration:  2016charge 0 multiplicity 1
 C         0.126582        -0.103843        -0.145188
 C         1.640176        -0.053233         0.011160
 O         1.909574         1.404918         0.274704
 C         2.160251        -1.020567         1.086362
 C         2.941246        -1.906921         0.546387
 C         2.938864        -1.792652        -0.941793
 C         3.732194        -0.512721        -1.466193
 C         2.252711        -0.539193        -1.328533
 O         1.287273        -0.349719        -2.379220
 H        -0.532825         0.511622        -0.838700
 H        -0.074714        -1.170862        -0.280196
 H        -0.341734         0.183260         0.834837
 H         2.909514         1.503165         0.485563
 H         2.095016        -0.546730         2.116979
 H         3.436738        -2.775404         1.006263
 H         2.940965        -2.714734        -1.480821
 H         4.423602        -0.014804        -0.743836
 H         4.292956        -0.720731        -2.414322
 H         1.301417        -1.165980        -2.940341
