19
Iteration:  4972
 C         0.134282        -0.196802         0.146098
 C         1.578032         0.000466        -0.004330
 O         1.890636         1.418886         0.263551
 C         2.217719        -0.976388         1.029265
 C         2.880350        -1.960440         0.543417
 C         3.023017        -1.715711        -1.018678
 C         3.659931        -0.459227        -1.352789
 C         2.171204        -0.495061        -1.387493
 O         1.403337        -0.548582        -2.513767
 H        -0.342738         0.585254        -0.506576
 H        -0.132042        -1.242502        -0.291341
 H        -0.250427        -0.219637         1.176947
 H         2.743237         1.582133        -0.250165
 H         2.091897        -0.649329         2.029012
 H         3.278572        -2.771521         1.155833
 H         3.272321        -2.576726        -1.694750
 H         4.095523        -0.019287        -0.463039
 H         4.189950        -0.380817        -2.300191
 H         1.482088         0.215098        -3.100796
