19
Iteration:  1837charge 0 multiplicity 1
 C         0.027734        -0.067989         0.210426
 C         1.557182         0.006149         0.030334
 O         1.850419         1.361342         0.190203
 C         2.187925        -0.973485         1.118784
 C         2.911289        -1.927894         0.510757
 C         2.889448        -1.764129        -0.974968
 C         3.785309        -0.505695        -1.403542
 C         2.181178        -0.515942        -1.278859
 O         1.516196        -0.498489        -2.635322
 H        -0.475605         0.874767         0.067394
 H        -0.356305        -0.732975        -0.584018
 H        -0.200023        -0.514929         1.218164
 H         2.757905         1.563008        -0.168123
 H         2.048571        -0.873936         2.240438
 H         3.226976        -2.841880         0.944290
 H         2.989166        -2.550457        -1.692796
 H         4.485304        -0.099239        -0.605494
 H         3.998618        -0.459288        -2.448535
 H         2.283883        -0.369711        -3.190331
