19
Iteration:   295charge 0 multiplicity 1
 C         0.016136        -0.119100         0.016981
 C         1.514386         0.043455         0.014480
 O         1.883216         1.395023         0.316877
 C         2.011947        -0.967443         1.050127
 C         2.806301        -1.943151         0.497484
 C         3.016063        -1.754245        -0.995638
 C         3.875562        -0.454581        -1.366119
 C         2.257617        -0.494132        -1.301903
 O         1.618555        -0.609226        -2.564332
 H        -0.569457         0.763558         0.397944
 H        -0.415562        -0.316232        -0.989198
 H        -0.301622        -0.874644         0.665794
 H         2.749920         1.546352        -0.006132
 H         1.759209        -0.813287         2.134432
 H         3.282656        -2.783195         1.040405
 H         2.908761        -2.645810        -1.603478
 H         4.463735        -0.109856        -0.550737
 H         4.280489        -0.387686        -2.356900
 H         0.956095         0.126867        -2.543452
