19
Iteration:  3962charge 0 multiplicity 1
 C         0.098928        -0.166098        -0.068781
 C         1.575256        -0.057213        -0.023270
 O         2.013488         1.294610         0.192519
 C         2.209559        -0.971558         1.011678
 C         2.990734        -1.918238         0.581570
 C         3.044447        -1.775740        -0.919773
 C         3.626479        -0.355057        -1.395768
 C         2.181126        -0.555808        -1.277861
 O         1.331379        -0.479523        -2.422971
 H        -0.413345         0.775806        -0.113633
 H        -0.335192        -0.689735        -1.038392
 H        -0.167295        -0.685115         0.823878
 H         1.619962         1.645748         1.008156
 H         1.957328        -0.548667         1.989302
 H         3.501831        -2.769343         1.084786
 H         2.965609        -2.612919        -1.682576
 H         4.022228         0.344225        -0.745197
 H         4.049268        -0.398509        -2.384562
 H         1.681392         0.296538        -2.932211
