19
Iteration:  2125charge 0 multiplicity 1
 C         0.055495        -0.134024         0.057505
 C         1.606428        -0.053226        -0.010155
 O         1.935106         1.332703        -0.002156
 C         2.115954        -1.043869         1.083848
 C         2.892373        -1.952833         0.538284
 C         3.034812        -1.750893        -0.925605
 C         3.737684        -0.419770        -1.365853
 C         2.233656        -0.574479        -1.283614
 O         1.379264        -0.390509        -2.406938
 H        -0.371257         0.582807        -0.710165
 H        -0.332531        -1.107701        -0.076518
 H        -0.211537         0.227050         1.079497
 H         2.916001         1.307496        -0.293164
 H         2.004166        -0.864456         2.223796
 H         3.015849        -2.868449         1.152911
 H         3.304256        -2.494257        -1.663515
 H         4.440144         0.095507        -0.580736
 H         4.182882        -0.481368        -2.355467
 H         1.015243         0.485520        -2.155179
