19
Iteration:  3258charge 0 multiplicity 1
 C         0.133075        -0.264750        -0.157385
 C         1.582054         0.023366         0.118632
 O         1.818504         1.425704         0.237519
 C         2.281906        -0.871235         1.116456
 C         2.970921        -1.864672         0.512282
 C         2.893368        -1.822557        -0.967527
 C         3.709682        -0.615252        -1.557704
 C         2.247012        -0.563509        -1.195269
 O         1.437285        -0.402176        -2.394191
 H        -0.329446         0.171617        -1.027861
 H        -0.062167        -1.327383        -0.217302
 H        -0.511812         0.044052         0.626426
 H         1.238729         1.874220         0.816823
 H         2.224308        -0.761145         2.190948
 H         3.465314        -2.614714         1.040187
 H         2.767874        -2.742716        -1.555028
 H         4.379074        -0.096295        -0.962748
 H         4.144885        -0.521865        -2.572556
 H         1.888833         0.155367        -3.043990
