19
Iteration:  2925charge 0 multiplicity 1
 C         0.079095        -0.203918        -0.000174
 C         1.645294         0.039273        -0.014200
 O         1.874606         1.474965         0.342391
 C         2.157273        -0.943274         1.019695
 C         2.797489        -1.999754         0.463240
 C         3.063725        -1.716052        -0.918435
 C         3.785640        -0.381348        -1.462590
 C         2.279448        -0.552396        -1.288048
 O         1.391791        -0.667291        -2.450964
 H        -0.559058         0.643208        -0.468060
 H        -0.062053        -1.145507        -0.452005
 H        -0.142208        -0.140039         1.115009
 H         2.481815         1.868364        -0.375444
 H         1.858793        -0.714138         2.025268
 H         3.009593        -2.978370         0.928299
 H         2.973989        -2.599342        -1.651209
 H         4.335429         0.214217        -0.664533
 H         4.256791        -0.352551        -2.396732
 H         1.003900         0.176476        -2.695080
