19
Iteration:  2740
 C        -0.095857        -0.212400         0.163619
 C         1.496461        -0.095379         0.077165
 O         1.966925         1.445990        -0.038954
 C         2.238623        -0.983105         1.019822
 C         3.004845        -1.961304         0.543093
 C         2.974433        -1.801175        -0.947342
 C         3.689469        -0.507842        -1.374085
 C         2.073809        -0.635412        -1.233651
 O         1.559559        -0.288657        -2.496116
 H        -0.677770         0.802817         0.010267
 H        -0.428321        -0.909230        -0.573665
 H        -0.320942        -0.487309         1.225097
 H         2.975793         1.258519        -0.103422
 H         2.198222        -0.791478         2.120038
 H         3.422727        -2.688737         1.189794
 H         3.107977        -2.678347        -1.495112
 H         4.281673        -0.024585        -0.684636
 H         3.936024        -0.517213        -2.480751
 H         1.611561         0.690566        -2.424058
