19
Iteration:  1851charge 0 multiplicity 1
 C        -0.005891        -0.074405         0.153252
 C         1.550193        -0.018367         0.047311
 O         1.824487         1.418235         0.177682
 C         2.227519        -0.968210         1.076154
 C         2.896438        -1.952564         0.545773
 C         3.018940        -1.807811        -0.941593
 C         3.682408        -0.557465        -1.478563
 C         2.180294        -0.516001        -1.348078
 O         1.556054        -0.451062        -2.525092
 H        -0.319924         0.974517         0.102958
 H        -0.493348        -0.858497        -0.569870
 H        -0.267684        -0.281686         1.197532
 H         2.777463         1.370998         0.341978
 H         1.753557        -0.965037         2.073800
 H         3.600305        -2.674409         0.944416
 H         2.769720        -2.706398        -1.531403
 H         4.415040        -0.052364        -0.746825
 H         4.067366        -0.674478        -2.464831
 H         2.117757        -0.055389        -3.226943
