19
Iteration:  3642charge 0 multiplicity 1
 C         0.068212        -0.232875         0.002486
 C         1.599415        -0.044927         0.002638
 O         1.848382         1.395644         0.102682
 C         2.150294        -0.942947         1.062709
 C         2.888856        -1.958003         0.499156
 C         3.032300        -1.714479        -0.976936
 C         3.808336        -0.459774        -1.350768
 C         2.220490        -0.541968        -1.234987
 O         1.467603        -0.462797        -2.401277
 H        -0.386359         0.791758        -0.470115
 H        -0.341679        -1.102748        -0.440199
 H        -0.262959        -0.369192         1.103319
 H         2.502402         1.616050        -0.506056
 H         1.736973        -0.848411         2.105276
 H         3.154839        -2.835868         1.031255
 H         2.949713        -2.481486        -1.706568
 H         4.595870        -0.220051        -0.556748
 H         3.950144        -0.256390        -2.415604
 H         0.948299         0.330278        -2.203298
