19
Iteration:  1827charge 0 multiplicity 1
 C         0.003181        -0.128679         0.210565
 C         1.593845        -0.007745         0.033646
 O         1.911657         1.407034         0.229174
 C         2.154938        -0.929195         1.048269
 C         2.851231        -1.948088         0.488462
 C         2.971775        -1.819580        -1.008821
 C         3.702648        -0.503130        -1.344279
 C         2.197885        -0.482134        -1.346638
 O         1.502736        -0.509753        -2.576079
 H        -0.328579         0.885034         0.094264
 H        -0.340205        -0.815575        -0.611141
 H        -0.352222        -0.504055         1.206099
 H         2.584498         1.580328        -0.420441
 H         2.341758        -0.687728         2.127605
 H         3.246003        -2.738392         1.081604
 H         2.910536        -2.641293        -1.701139
 H         4.235719         0.055801        -0.494707
 H         4.279783        -0.411802        -2.247980
 H         2.192148        -0.444461        -3.242462
