19
Iteration:  1685
 C         0.056174        -0.100930         0.085352
 C         1.565627        -0.023364         0.029969
 O         1.966893         1.451475         0.088630
 C         2.104215        -1.032405         1.052664
 C         2.786859        -1.988897         0.487047
 C         3.010712        -1.800572        -0.968055
 C         3.699451        -0.355873        -1.347246
 C         2.245431        -0.590797        -1.303705
 O         1.518798        -0.517874        -2.461885
 H        -0.344429         0.585160        -0.691034
 H        -0.119232        -1.145952        -0.137239
 H        -0.388245         0.032282         1.141155
 H         2.832864         1.527105         0.476708
 H         1.976242        -0.734896         2.065280
 H         2.966058        -2.978482         0.959377
 H         3.155760        -2.780299        -1.472256
 H         4.238757         0.008064        -0.563954
 H         4.153470        -0.335141        -2.378134
 H         1.250275         0.408676        -2.651612
