19
Iteration:    53
 C         0.046521        -0.052890        -0.006773
 C         1.529205        -0.058307         0.035108
 O         1.947050         1.358139         0.372209
 C         2.118855        -0.980549         1.070120
 C         2.835723        -1.979330         0.499595
 C         3.076950        -1.783422        -0.957818
 C         3.652264        -0.413622        -1.465802
 C         2.213586        -0.527366        -1.254325
 O         1.520062        -0.496411        -2.524937
 H        -0.148904         0.808172         0.568537
 H        -0.332490        -0.043180        -1.026429
 H        -0.435102        -1.034306         0.386851
 H         2.058362         1.835628        -0.443031
 H         1.960260        -0.757498         2.142573
 H         3.509773        -2.610165         1.060237
 H         3.034323        -2.591986        -1.665662
 H         4.258621         0.135210        -0.771265
 H         3.833743        -0.330380        -2.544123
 H         2.222584        -0.844165        -3.078570
