19
Iteration:    38charge 0 multiplicity 1
 C        -0.007249        -0.062101         0.074784
 C         1.557381         0.018735        -0.044031
 O         1.881284         1.302111         0.421839
 C         2.133006        -0.925876         0.976333
 C         2.914590        -1.831448         0.509186
 C         3.033271        -1.761568        -0.990020
 C         3.747515        -0.467677        -1.401374
 C         2.193221        -0.592406        -1.361812
 O         1.520600        -0.504927        -2.520650
 H        -0.424261         0.740170         0.762396
 H        -0.500287         0.119585        -0.915130
 H        -0.271148        -0.990049         0.596420
 H         2.748734         1.549467         0.033207
 H         1.693135        -0.935328         1.996842
 H         3.164520        -2.786865         1.043662
 H         3.029483        -2.673570        -1.646452
 H         4.344189         0.058378        -0.627175
 H         4.236984        -0.407213        -2.418798
 H         1.799940        -1.145937        -3.180383
