19
Iteration:  4242charge 0 multiplicity 1
 C         0.008276        -0.130959         0.077957
 C         1.558788        -0.085806         0.022272
 O         1.905467         1.291240         0.357649
 C         2.140035        -0.936329         1.036935
 C         2.960611        -1.930570         0.445659
 C         3.044106        -1.785905        -1.001600
 C         3.663692        -0.401696        -1.403635
 C         2.180169        -0.532510        -1.370412
 O         1.466483        -0.462377        -2.549465
 H        -0.217606        -0.913310         0.784667
 H        -0.327969         0.888505         0.500151
 H        -0.340083        -0.254510        -0.902349
 H         2.919822         1.370883         0.449023
 H         1.907318        -0.734419         2.101128
 H         3.611648        -2.603128         1.022716
 H         3.029320        -2.635781        -1.630032
 H         4.097278         0.026707        -0.510825
 H         4.243102        -0.389001        -2.312673
 H         1.564959         0.431830        -2.906545
