19
Iteration:  2458charge 0 multiplicity 1
 C         0.053729        -0.217427         0.169844
 C         1.612386         0.020593        -0.012132
 O         1.858161         1.410719         0.150300
 C         2.237345        -0.880864         1.092258
 C         2.848724        -1.972468         0.542565
 C         2.896180        -1.806540        -1.001740
 C         3.708887        -0.554024        -1.387645
 C         2.188305        -0.521374        -1.330453
 O         1.549188        -0.431951        -2.521501
 H        -0.610756         0.187752        -0.683809
 H        -0.127607        -1.262035         0.341717
 H        -0.134132         0.358453         1.079900
 H         2.720359         1.573493        -0.135856
 H         2.273340        -0.661016         2.121535
 H         3.125602        -2.918260         1.011125
 H         2.793878        -2.735729        -1.677404
 H         4.408225        -0.215421        -0.624748
 H         4.179586        -0.499485        -2.367020
 H         1.417995         0.509714        -2.786725
