19
Iteration:  4975
 C         0.134623        -0.222325         0.141082
 C         1.596464         0.023485         0.023645
 O         1.884654         1.440129         0.266598
 C         2.226965        -0.961010         1.029674
 C         2.871090        -1.977026         0.528874
 C         3.035325        -1.731166        -1.021506
 C         3.656974        -0.466718        -1.337156
 C         2.163981        -0.519899        -1.387955
 O         1.393913        -0.541149        -2.534946
 H        -0.354124         0.597515        -0.482449
 H        -0.069296        -1.186507        -0.324770
 H        -0.287000        -0.295741         1.209262
 H         2.746722         1.591255        -0.266911
 H         2.096512        -0.617230         2.066347
 H         3.263589        -2.759748         1.163420
 H         3.197478        -2.567246        -1.656939
 H         4.103474         0.095456        -0.444751
 H         4.150576        -0.406988        -2.328292
 H         1.576101         0.230363        -3.144401
