19
Iteration:  3891charge 0 multiplicity 1
 C         0.082874        -0.346875         0.155598
 C         1.611525         0.025912         0.068683
 O         1.791860         1.408389         0.196163
 C         2.355849        -0.829993         1.142850
 C         2.864932        -1.951457         0.476981
 C         2.872084        -1.861941        -1.000179
 C         3.791004        -0.625306        -1.360165
 C         2.227324        -0.536686        -1.359197
 O         1.522653        -0.283650        -2.634733
 H        -0.421811        -0.344475        -0.842329
 H         0.014489        -1.396428         0.432377
 H        -0.508468         0.288774         0.912901
 H         0.956127         1.840041         0.205965
 H         2.548215        -0.686949         2.222999
 H         3.110819        -2.855383         1.148535
 H         2.863681        -2.632632        -1.784931
 H         4.285822         0.010544        -0.530392
 H         4.262872        -0.561572        -2.410230
 H         1.309746         0.673131        -2.624939
