19
Iteration:   441charge 0 multiplicity 1
 C        -0.060904        -0.162035        -0.100531
 C         1.601905        -0.048258         0.003803
 O         1.874794         1.379811         0.167805
 C         2.162154        -0.869271         1.089578
 C         2.934729        -1.865435         0.553587
 C         2.968049        -1.759270        -0.964142
 C         3.764232        -0.581718        -1.245901
 C         2.214619        -0.570040        -1.280845
 O         1.538897        -0.465132        -2.492174
 H        -0.443310        -0.751477         0.699785
 H        -0.532364         0.788891         0.052222
 H        -0.339101        -0.755829        -1.039064
 H         2.845253         1.337206        -0.100335
 H         1.808674        -0.685904         2.139452
 H         3.279247        -2.848279         0.971021
 H         3.087447        -2.601593        -1.691539
 H         4.352292        -0.131592        -0.458343
 H         4.081859        -0.388915        -2.346996
 H         1.338362         0.485731        -2.486514
