19
Iteration:   547charge 0 multiplicity 1
 C         0.066896        -0.104829        -0.181321
 C         1.590812         0.045450        -0.004630
 O         1.944507         1.388040         0.434487
 C         2.136635        -0.900948         1.097940
 C         2.818519        -1.978330         0.595749
 C         3.110135        -1.825136        -0.948220
 C         3.753223        -0.479856        -1.342060
 C         2.219323        -0.571760        -1.356338
 O         1.433600        -0.438859        -2.564350
 H        -0.466155         0.398792         0.633201
 H        -0.353984         0.272047        -1.136236
 H        -0.337349        -1.199691        -0.135609
 H         1.989645         1.834987        -0.395725
 H         1.966218        -0.732078         2.200041
 H         3.004537        -2.892841         1.237635
 H         3.303162        -2.671092        -1.679196
 H         4.197717         0.239210        -0.728236
 H         4.225262        -0.466270        -2.357941
 H         1.194325        -1.366502        -2.668888
