19
Iteration:  1967charge 0 multiplicity 1
 C         0.031839        -0.043210         0.283929
 C         1.534957        -0.020332        -0.040162
 O         1.898710         1.358430         0.109980
 C         2.127932        -0.990215         0.997452
 C         2.939826        -1.998325         0.483505
 C         2.981580        -1.801170        -1.014048
 C         3.702676        -0.487496        -1.294021
 C         2.195763        -0.553947        -1.330734
 O         1.465003        -0.439920        -2.530280
 H        -0.334901         0.804880        -0.260443
 H        -0.621806        -0.869727         0.018827
 H        -0.241441         0.308601         1.312357
 H         2.842247         1.320892         0.004002
 H         1.985781        -0.812871         2.121073
 H         3.611729        -2.483432         1.208394
 H         3.197764        -2.697672        -1.629979
 H         4.185865         0.210991        -0.542543
 H         4.320174        -0.399771        -2.132343
 H         2.162898        -0.533705        -3.198841
