19
Iteration:  1997charge 0 multiplicity 1
 C         0.036476        -0.127494         0.012961
 C         1.569557         0.008493         0.017703
 O         1.970339         1.318197         0.112007
 C         2.291206        -0.957500         1.112737
 C         2.858634        -1.964680         0.534454
 C         3.050438        -1.804771        -0.994172
 C         3.658555        -0.468798        -1.393542
 C         2.116453        -0.595803        -1.249690
 O         1.414785        -0.320450        -2.434704
 H        -0.311788         0.709782        -0.712827
 H        -0.321594        -1.041742        -0.387634
 H        -0.431386         0.262315         1.009972
 H         2.880353         1.263830         0.445097
 H         1.880283        -0.915878         2.186959
 H         3.400381        -2.682882         1.164393
 H         3.102791        -2.678613        -1.638415
 H         4.231484         0.231963        -0.704849
 H         3.815741        -0.366133        -2.420654
 H         1.726846        -1.003244        -3.049012
