19
Iteration:  3089
 C        -0.036467        -0.102956        -0.071133
 C         1.519054        -0.060439        -0.010552
 O         1.976319         1.374695         0.446833
 C         2.152977        -0.951737         1.038511
 C         3.060634        -1.854205         0.526598
 C         3.046679        -1.817101        -0.929251
 C         3.648151        -0.493670        -1.512983
 C         2.193466        -0.561317        -1.298105
 O         1.449575        -0.565080        -2.482670
 H        -0.440315         0.694767        -0.659420
 H        -0.389572        -1.048345        -0.480941
 H        -0.379482        -0.015238         1.007921
 H         1.667419         2.111031        -0.073073
 H         2.114694        -0.773594         2.137331
 H         3.824051        -2.354527         1.105108
 H         2.973592        -2.698735        -1.510234
 H         4.335318         0.159813        -1.037173
 H         3.831388        -0.368950        -2.615141
 H         1.751031         0.235740        -2.991335
