19
Iteration:  2924
 C         0.064575        -0.203065         0.012320
 C         1.652026         0.043216        -0.011655
 O         1.878813         1.474541         0.338136
 C         2.160619        -0.936823         1.010753
 C         2.799633        -1.998288         0.458264
 C         3.068147        -1.723825        -0.919297
 C         3.784950        -0.381076        -1.460566
 C         2.277742        -0.555417        -1.281788
 O         1.390676        -0.669704        -2.458386
 H        -0.549335         0.660564        -0.483130
 H        -0.051765        -1.127204        -0.420122
 H        -0.168053        -0.157971         1.103297
 H         2.462903         1.865797        -0.351936
 H         1.822753        -0.755108         2.019222
 H         2.984125        -2.975427         0.940344
 H         2.997368        -2.599010        -1.652762
 H         4.324183         0.225901        -0.638990
 H         4.281567        -0.320538        -2.380710
 H         1.007410         0.174259        -2.686154
