19
Iteration:  3039charge 0 multiplicity 1
 C         0.151403        -0.267311         0.109627
 C         1.668490         0.037415         0.041037
 O         1.957355         1.482047         0.048720
 C         2.191066        -0.963609         1.025101
 C         2.747613        -2.068769         0.474572
 C         3.042308        -1.717735        -1.015267
 C         3.697430        -0.413446        -1.301596
 C         2.203057        -0.518163        -1.257911
 O         1.432218        -0.542192        -2.429302
 H        -0.517301         0.254231        -0.615216
 H         0.107484        -1.440586         0.023454
 H        -0.226001        -0.224937         1.149548
 H         1.110599         1.925942        -0.054666
 H         2.164063        -0.699824         2.076310
 H         3.083933        -2.957620         1.005282
 H         3.083771        -2.359734        -1.854913
 H         4.382036         0.070056        -0.537976
 H         4.082692        -0.235537        -2.251537
 H         1.200698         0.379057        -2.546806
