19
Iteration:  1353charge 0 multiplicity 1
 C         0.087507        -0.153684         0.081203
 C         1.548072         0.028756        -0.015807
 O         1.970889         1.491945         0.170111
 C         2.062756        -1.010047         0.999557
 C         2.832095        -1.977921         0.474891
 C         3.029259        -1.773159        -0.942469
 C         3.775517        -0.526064        -1.336204
 C         2.240283        -0.536184        -1.290751
 O         1.521154        -0.539987        -2.508014
 H        -0.466278         0.469092        -0.676296
 H        -0.247954        -1.192144        -0.272103
 H        -0.265231         0.091444         1.067300
 H         1.416674         1.863532         0.888964
 H         1.909550        -0.770842         2.056058
 H         3.181360        -2.924078         0.969151
 H         2.859509        -2.587015        -1.638024
 H         4.185422         0.061269        -0.424818
 H         4.433552        -0.424048        -2.176097
 H         1.338810         0.368839        -2.825226
