19
Iteration:  3362
 C         0.067334        -0.092628         0.154907
 C         1.524150        -0.033779         0.011791
 O         1.921231         1.287437         0.149571
 C         2.172523        -0.979206         1.028652
 C         2.964638        -1.918682         0.474631
 C         3.118831        -1.800080        -1.001767
 C         3.710410        -0.369079        -1.334357
 C         2.181896        -0.558235        -1.344032
 O         1.426346        -0.491639        -2.492169
 H        -0.411370         0.396202        -0.642130
 H        -0.483278        -1.099469         0.078811
 H        -0.227435         0.253748         1.175475
 H         1.269159         1.849790         0.717183
 H         1.864683        -0.937424         2.055171
 H         3.401762        -2.729578         1.009490
 H         3.230955        -2.668395        -1.779579
 H         4.082536         0.118469        -0.455526
 H         4.195432        -0.413331        -2.385215
 H         1.758426         0.321965        -2.961499
