19
Iteration:  4210
 C        -0.027551        -0.294397        -0.041667
 C         1.597649        -0.061703         0.122940
 O         1.765928         1.429036         0.166084
 C         2.285716        -0.973398         1.039174
 C         2.913776        -1.961462         0.478495
 C         3.019920        -1.809111        -1.013350
 C         3.739446        -0.646513        -1.462589
 C         2.228118        -0.464332        -1.214593
 O         1.485616        -0.241873        -2.379382
 H        -0.319271        -1.213503         0.384466
 H        -0.473360         0.662793         0.393692
 H        -0.154015        -0.440789        -1.050951
 H         2.566546         1.614102         0.573839
 H         2.253761        -0.613811         2.053719
 H         3.530833        -2.720831         0.927384
 H         2.861171        -2.630497        -1.649648
 H         4.581042        -0.245565        -0.928103
 H         3.963517        -0.735936        -2.511125
 H         1.188954         0.675918        -2.463357
