19
Iteration:  3120
 C        -0.014950        -0.056918        -0.056323
 C         1.475714        -0.097154         0.038269
 O         1.978915         1.192822         0.521261
 C         2.123841        -0.987560         1.126170
 C         3.036985        -1.700117         0.564778
 C         3.066606        -1.680268        -0.915361
 C         3.775313        -0.537961        -1.582218
 C         2.203615        -0.505094        -1.374388
 O         1.357762        -0.582418        -2.565391
 H        -0.260941         0.607018        -0.935878
 H        -0.397173        -0.986897        -0.259358
 H        -0.388347         0.476162         0.840924
 H         1.773038         1.990811        -0.081011
 H         2.024323        -0.794327         2.219971
 H         3.839587        -2.244360         1.040077
 H         2.956891        -2.666830        -1.383554
 H         4.429443         0.184191        -1.144685
 H         3.793679        -0.555651        -2.754250
 H         1.949198        -0.199044        -3.216819
