19
Iteration:    72charge 0 multiplicity 1
 C        -0.030765        -0.054360        -0.130219
 C         1.583302        -0.001607         0.063561
 O         2.037653         1.334255         0.212343
 C         2.174273        -1.048923         1.127712
 C         2.964272        -2.003214         0.538471
 C         2.995157        -1.734982        -0.925912
 C         3.710554        -0.407481        -1.352994
 C         2.247342        -0.565641        -1.308961
 O         1.392063        -0.444328        -2.443243
 H        -0.624158         0.633670         0.494653
 H        -0.361525         0.106938        -1.176307
 H        -0.423483        -1.122830         0.053274
 H         1.304595         1.858331        -0.025485
 H         2.001422        -1.029850         2.264399
 H         3.317227        -2.893121         1.102756
 H         3.089892        -2.558420        -1.649271
 H         4.185873         0.239788        -0.653375
 H         4.226312        -0.649315        -2.356757
 H         1.800633        -0.218546        -3.274872
