19
Iteration:  2630
 C        -0.017699         0.014622        -0.038687
 C         1.522287        -0.087097        -0.004056
 O         1.952268         1.302335         0.356245
 C         2.140793        -0.942768         1.054983
 C         3.028588        -1.844601         0.539241
 C         3.037180        -1.811159        -0.946808
 C         3.748112        -0.474700        -1.461921
 C         2.180973        -0.581600        -1.358507
 O         1.347851        -0.525654        -2.483529
 H        -0.361617         0.423085        -1.054046
 H        -0.471605        -1.041070        -0.037055
 H        -0.392257         0.544917         0.824812
 H         2.953871         1.201853         0.369751
 H         1.904889        -0.508454         2.085181
 H         3.671129        -2.551875         1.160741
 H         3.067610        -2.770163        -1.516213
 H         4.393696         0.051181        -0.651833
 H         4.251341        -0.519595        -2.381192
 H         1.603360         0.274971        -2.955975
