19
Iteration:  2175charge 0 multiplicity 1
 C         0.031991        -0.172409         0.022026
 C         1.578418         0.048026        -0.067426
 O         1.758829         1.366281         0.437098
 C         2.360618        -0.781120         1.105785
 C         2.854879        -1.860751         0.470480
 C         2.828782        -1.817559        -0.956351
 C         3.756033        -0.701623        -1.464330
 C         2.276804        -0.505361        -1.354434
 O         1.476646        -0.475416        -2.541581
 H        -0.491304         0.372905        -0.783895
 H        -0.073363        -1.312031        -0.065625
 H        -0.328977         0.241895         0.951766
 H         2.730549         1.431277         0.588472
 H         2.181123        -0.424381         2.178221
 H         3.648468        -2.537054         0.931409
 H         2.672242        -2.689746        -1.529761
 H         4.432540        -0.183511        -0.787907
 H         4.267849        -0.720591        -2.381795
 H         2.043843        -0.129823        -3.279128
