19
Iteration:   165
 C        -0.062786        -0.128713        -0.016989
 C         1.558245         0.031878        -0.122652
 O         1.917271         1.424487         0.391865
 C         2.227184        -0.870686         0.964022
 C         2.853830        -1.943826         0.558090
 C         2.970042        -1.815516        -0.943151
 C         3.794265        -0.631357        -1.303866
 C         2.264432        -0.489829        -1.337903
 O         1.544395        -0.579775        -2.545627
 H        -0.371709        -0.638894         0.942372
 H        -0.492360         0.911082         0.092249
 H        -0.583889        -0.516613        -0.843071
 H         1.257429         2.123021         0.055417
 H         2.099179        -0.645492         2.019496
 H         3.415217        -2.700177         1.143811
 H         3.020400        -2.689923        -1.638897
 H         4.405503        -0.184975        -0.573232
 H         4.325909        -0.558983        -2.279765
 H         1.397752         0.364726        -2.812476
