19
Iteration:  3101
 C        -0.070881        -0.059554        -0.065611
 C         1.477245        -0.015111         0.062633
 O         1.998578         1.267252         0.502044
 C         2.164004        -0.972683         1.062124
 C         3.144762        -1.704805         0.557898
 C         3.005580        -1.738427        -0.979674
 C         3.638410        -0.504444        -1.642858
 C         2.161968        -0.582535        -1.279424
 O         1.498825        -0.565001        -2.508985
 H        -0.431008         0.634807        -0.751181
 H        -0.368247        -1.100326        -0.442961
 H        -0.605058         0.143239         0.928658
 H         1.584597         1.769781        -0.203396
 H         1.815710        -0.962336         2.099526
 H         3.683939        -2.379383         1.200982
 H         2.984446        -2.619777        -1.497268
 H         4.286992        -0.159165        -0.851397
 H         3.961617        -0.819456        -2.627764
 H         1.995604        -0.005462        -3.097194
