19
Iteration:  4001charge 0 multiplicity 1
 C        -0.030892         0.050727        -0.031868
 C         1.483908        -0.038743         0.039265
 O         2.009328         1.258177         0.337616
 C         2.057365        -1.044869         1.028537
 C         3.052020        -1.832837         0.507167
 C         3.137852        -1.619195        -0.965689
 C         3.750539        -0.342737        -1.510526
 C         2.153471        -0.497355        -1.312668
 O         1.408888        -0.773124        -2.483127
 H        -0.393041         1.140732        -0.143567
 H        -0.341638        -0.625324        -0.733013
 H        -0.539779        -0.319044         0.923969
 H         2.619543         1.135654         1.155892
 H         1.798688        -1.047285         2.061963
 H         3.544036        -2.649048         0.932732
 H         3.038889        -2.504740        -1.560301
 H         4.384781         0.301341        -0.725223
 H         4.092312        -0.518575        -2.561551
 H         0.970648         0.026471        -2.859603
