19
Iteration:  4339charge 0 multiplicity 1
 C         0.118436         0.024882        -0.116445
 C         1.595524        -0.091463         0.012050
 O         1.944659         1.238456         0.422434
 C         2.121543        -1.056454         1.076589
 C         2.989723        -1.876118         0.515388
 C         3.141091        -1.661491        -0.944195
 C         3.578395        -0.313095        -1.522475
 C         2.150008        -0.614588        -1.297730
 O         1.381369        -0.564519        -2.532935
 H        -0.193264        -0.690999        -0.913811
 H        -0.523763        -0.362491         0.839161
 H        -0.030230         1.110838        -0.387118
 H         2.798935         1.215645         1.039287
 H         1.870763        -1.032285         2.126357
 H         3.655177        -2.519558         1.011068
 H         3.240578        -2.496309        -1.571687
 H         4.309030         0.224138        -0.920064
 H         3.834657        -0.372083        -2.569794
 H         0.597992         0.002776        -2.348019
