19
Iteration:  4152charge 0 multiplicity 1
 C         0.034696        -0.469532         0.160289
 C         1.586952         0.033875         0.027214
 O         1.679226         1.486640         0.236257
 C         2.373638        -0.856245         1.023567
 C         2.811749        -1.961881         0.492627
 C         2.772175        -1.806189        -1.066361
 C         3.828787        -0.689784        -1.379235
 C         2.266136        -0.458468        -1.273702
 O         1.593895        -0.237750        -2.528189
 H         0.097657        -1.617216        -0.086107
 H        -0.321552        -0.626248         1.135048
 H        -0.930221        -0.027102        -0.333339
 H         2.652222         1.807002         0.090425
 H         2.537725        -0.446769         2.059428
 H         3.408171        -2.795682         0.934235
 H         2.661554        -2.701457        -1.754147
 H         4.566329        -0.273115        -0.594324
 H         4.154718        -0.629707        -2.485572
 H         1.818377         0.650276        -2.893008
