19
Iteration:  4093charge 0 multiplicity 1
 C        -0.040949        -0.105945        -0.055886
 C         1.490429        -0.104127         0.008759
 O         1.923513         1.360519         0.308813
 C         2.163166        -0.998554         1.035776
 C         2.977045        -1.890590         0.470181
 C         3.140868        -1.781842        -0.999780
 C         3.770269        -0.426146        -1.407537
 C         2.215062        -0.542213        -1.314940
 O         1.371346        -0.482877        -2.407746
 H        -0.306742        -0.332016        -1.026126
 H        -0.364486        -0.897209         0.714631
 H        -0.401838         0.847463         0.193299
 H         2.836810         1.344009         0.163665
 H         1.766500        -1.013556         2.023828
 H         3.459076        -2.595053         1.130904
 H         3.220762        -2.635097        -1.632540
 H         4.287522         0.165916        -0.713864
 H         4.129732        -0.370510        -2.391431
 H         1.175026         0.443432        -2.500168
