19
Iteration:  4564
 C         0.052150         0.039061        -0.021129
 C         1.583381        -0.108282         0.050102
 O         2.016416         1.222049         0.261269
 C         2.102914        -1.115204         1.042593
 C         3.012721        -1.940271         0.493364
 C         3.155294        -1.675738        -0.943547
 C         3.610934        -0.275167        -1.475762
 C         2.197884        -0.534290        -1.269728
 O         1.273935        -0.493698        -2.424682
 H        -0.520531        -0.906271        -0.371083
 H        -0.321050         0.437156         0.868597
 H        -0.221287         0.772378        -0.907397
 H         2.539132         1.187302         1.084013
 H         1.627455        -1.130479         2.073537
 H         3.484497        -2.873038         0.827858
 H         3.445849        -2.445745        -1.657397
 H         4.163019         0.509418        -0.921512
 H         3.871585        -0.197794        -2.561340
 H         1.812560        -0.880017        -3.109698
