19
Iteration:  4499
 C         0.062464        -0.220771         0.076016
 C         1.585536        -0.032811         0.049190
 O         1.774062         1.387227         0.386155
 C         2.269827        -0.984480         1.088249
 C         2.878442        -1.929833         0.487973
 C         2.960005        -1.781398        -1.032267
 C         3.747602        -0.523125        -1.567293
 C         2.192490        -0.510515        -1.273490
 O         1.559021        -0.321085        -2.520340
 H        -0.258331        -1.159116        -0.500597
 H        -0.376517        -0.239488         0.990472
 H        -0.375504         0.697635        -0.509467
 H         2.767043         1.704417         0.230758
 H         2.130814        -0.591749         2.170188
 H         3.618017        -2.689383         0.911794
 H         2.693762        -2.669643        -1.623989
 H         4.207828         0.142078        -0.820004
 H         3.962269        -0.494596        -2.684785
 H         1.058913        -1.143908        -2.736562
