19
Iteration:  4081charge 0 multiplicity 1
 C         0.010344        -0.054828        -0.096352
 C         1.584991        -0.017681         0.024294
 O         1.981141         1.226352         0.319284
 C         2.027682        -1.009855         1.003214
 C         2.998444        -1.868193         0.477414
 C         3.117366        -1.688731        -1.028460
 C         3.678948        -0.346770        -1.396064
 C         2.201355        -0.562062        -1.236093
 O         1.389051        -0.580734        -2.374045
 H        -0.309850        -0.269412        -1.071438
 H        -0.557195        -0.888248         0.468063
 H        -0.442676         0.819310         0.212273
 H         2.950690         1.360891        -0.005448
 H         1.804693        -0.933858         2.064870
 H         3.676818        -2.667796         0.940187
 H         3.324443        -2.570636        -1.658030
 H         4.349637         0.058771        -0.677311
 H         3.840190        -0.173910        -2.455158
 H         1.122817         0.314980        -2.692585
