19
Iteration:  1013
 C        -0.009553        -0.226017        -0.008644
 C         1.553412         0.003855         0.038751
 O         1.835612         1.429812         0.311562
 C         2.186866        -0.918527         1.035892
 C         2.743006        -1.975227         0.497619
 C         2.904220        -1.820698        -0.957383
 C         3.848721        -0.579816        -1.394115
 C         2.265895        -0.465940        -1.284314
 O         1.598789        -0.335933        -2.525485
 H        -0.233056        -0.087323        -1.048420
 H        -0.239864        -1.191577         0.370709
 H        -0.479979         0.629210         0.580290
 H         2.652036         1.621647        -0.253800
 H         2.160385        -0.756034         2.133613
 H         3.239582        -2.815166         1.060526
 H         2.994761        -2.698531        -1.617604
 H         4.264137        -0.076318        -0.504585
 H         4.299351        -0.283747        -2.316112
 H         1.591146        -1.232915        -2.895890
