19
Iteration:  3224charge 0 multiplicity 1
 C        -0.051167        -0.089116         0.090413
 C         1.471647        -0.020706         0.007920
 O         1.894375         1.333138         0.316734
 C         2.228376        -0.909951         1.024396
 C         2.996991        -1.834585         0.549673
 C         2.987710        -1.797127        -0.952541
 C         3.799615        -0.555339        -1.455097
 C         2.229648        -0.591337        -1.365364
 O         1.496844        -0.507027        -2.608903
 H        -0.650566         0.592480        -0.436405
 H        -0.359345        -1.185736        -0.008162
 H        -0.108854         0.075977         1.142716
 H         1.108764         1.754381         0.555155
 H         2.141553        -0.649597         2.090056
 H         3.630099        -2.431429         1.206271
 H         3.111381        -2.841053        -1.430111
 H         4.238216         0.064057        -0.694300
 H         4.102016        -0.630252        -2.527502
 H         1.691932         0.415758        -2.808486
