19
Iteration:   998charge 0 multiplicity 1
 C         0.153246        -0.198739        -0.141679
 C         1.638351         0.053104        -0.065243
 O         1.839049         1.424729         0.353879
 C         2.107734        -0.961250         1.045210
 C         2.852452        -1.943991         0.545970
 C         2.961456        -1.817575        -0.994074
 C         3.733222        -0.561189        -1.282138
 C         2.279762        -0.489188        -1.297800
 O         1.466309        -0.359727        -2.435668
 H        -0.446436         0.057172        -1.062805
 H         0.011447        -1.335412         0.078255
 H        -0.354365         0.472290         0.571480
 H         2.472432         1.858948        -0.158934
 H         1.726391        -0.715876         2.004337
 H         3.203454        -2.816773         1.063146
 H         2.728880        -2.565502        -1.754752
 H         4.424324        -0.301688        -0.520434
 H         4.128992        -0.790108        -2.325245
 H         1.617485        -1.052586        -3.082888
