19
Iteration:  2277
 C         0.041749        -0.107429         0.218270
 C         1.572380        -0.015688        -0.029208
 O         1.989225         1.362071         0.078300
 C         2.207372        -0.966999         1.091919
 C         2.838936        -1.971520         0.471426
 C         3.029482        -1.769063        -0.965629
 C         3.655536        -0.413153        -1.253987
 C         2.102808        -0.594928        -1.309409
 O         1.509151        -0.497480        -2.565762
 H        -0.632856         0.509752        -0.403642
 H        -0.165716        -1.099218         0.023220
 H        -0.046477         0.116602         1.303684
 H         2.738241         1.531144        -0.569162
 H         2.165485        -0.901270         2.124868
 H         3.089138        -2.863008         0.969798
 H         3.099669        -2.699421        -1.644780
 H         4.145178         0.086852        -0.443577
 H         3.922680        -0.097915        -2.325084
 H         1.445581         0.454264        -2.706730
