19
Iteration:  1415charge 0 multiplicity 1
 C         0.029076        -0.066699         0.017864
 C         1.464529        -0.052127         0.016434
 O         2.094036         1.299096         0.219770
 C         2.047379        -1.061835         1.082697
 C         2.922141        -1.873504         0.497046
 C         3.063304        -1.798362        -0.953246
 C         3.644347        -0.487579        -1.374593
 C         2.197309        -0.496537        -1.320010
 O         1.498176        -0.469815        -2.504474
 H        -0.450452         0.527323        -0.777116
 H        -0.310646        -1.091729        -0.153987
 H        -0.329984         0.452006         0.979439
 H         1.535614         2.085825         0.113976
 H         1.743309        -1.093983         2.191527
 H         3.716067        -2.504324         1.058072
 H         3.192547        -2.752724        -1.465379
 H         4.165321         0.076476        -0.555885
 H         4.081349        -0.447819        -2.299680
 H         1.883745         0.321739        -2.916107
