19
Iteration:  4614charge 0 multiplicity 1
 C         0.047120         0.106309        -0.058051
 C         1.509186        -0.118271        -0.028994
 O         2.048715         1.219396         0.540795
 C         2.097368        -0.986909         1.028246
 C         3.016073        -1.889828         0.464455
 C         3.149902        -1.651990        -0.996592
 C         3.631661        -0.257149        -1.536099
 C         2.157427        -0.536076        -1.349516
 O         1.359197        -0.742171        -2.536491
 H        -0.444144        -0.867502         0.017588
 H        -0.304791         0.672456         0.866616
 H        -0.374189         0.616628        -0.878712
 H         2.805113         0.748412         1.095004
 H         1.800672        -1.032717         2.086067
 H         3.445876        -2.607560         1.140051
 H         3.087654        -2.461926        -1.687316
 H         4.064194         0.380061        -0.763396
 H         4.269433        -0.416305        -2.439721
 H         0.934844         0.139025        -2.573102
