19
Iteration:  3478charge 0 multiplicity 1
 C        -0.016869        -0.034350         0.174206
 C         1.530987         0.000529         0.034609
 O         1.987839         1.290512         0.210563
 C         2.046938        -1.018111         1.004172
 C         2.960404        -1.946528         0.513672
 C         3.050198        -1.664595        -0.958133
 C         3.627942        -0.278803        -1.408177
 C         2.189397        -0.569402        -1.307891
 O         1.538706        -0.676617        -2.520249
 H        -0.478761         1.008526        -0.138281
 H        -0.197695        -0.669073        -0.615238
 H        -0.349171        -0.625966         1.029755
 H         2.928262         1.323493        -0.191888
 H         1.878195        -0.792278         2.044062
 H         3.677091        -2.607276         1.040130
 H         3.314743        -2.617706        -1.546606
 H         4.019211         0.269532        -0.604930
 H         3.916029        -0.337493        -2.491577
 H         1.312095         0.162654        -2.981985
