19
Iteration:  2601charge 0 multiplicity 1
 C         0.065470         0.012196        -0.050555
 C         1.571212        -0.078366         0.053091
 O         1.983054         1.368172         0.084494
 C         2.094452        -1.087772         1.068931
 C         2.954549        -1.956910         0.492665
 C         3.124180        -1.781835        -0.927689
 C         3.663549        -0.370180        -1.351413
 C         2.157110        -0.559195        -1.256466
 O         1.376912        -0.532871        -2.365650
 H        -0.301805         0.828798        -0.681739
 H        -0.239491        -0.859766        -0.490850
 H        -0.283645         0.083917         0.984434
 H         2.830740         1.364946        -0.279342
 H         1.803138        -0.740952         2.083554
 H         3.323014        -2.892121         0.931007
 H         3.262001        -2.604502        -1.560003
 H         4.327711         0.145033        -0.677754
 H         4.030434        -0.400092        -2.384448
 H         1.034040         0.378227        -2.549541
