19
Iteration:  1404
 C        -0.093111         0.022793         0.078871
 C         1.492674        -0.031878         0.028672
 O         2.108920         1.282010         0.160997
 C         2.091185        -1.034182         1.061002
 C         2.926011        -1.960269         0.495778
 C         3.045251        -1.818942        -0.992876
 C         3.658367        -0.389139        -1.334473
 C         2.150361        -0.649004        -1.230761
 O         1.583722        -0.458748        -2.557811
 H        -0.547464         0.606423        -0.733234
 H        -0.390013        -1.029883         0.043316
 H        -0.418733         0.211265         1.153212
 H         1.300491         1.921582         0.034126
 H         1.766949        -0.898463         2.162731
 H         3.690164        -2.506014         1.167158
 H         3.336740        -2.627275        -1.667773
 H         4.295260         0.151676        -0.601259
 H         3.886907        -0.255059        -2.327657
 H         1.872368         0.379822        -2.944728
