19
Iteration:  2001
 C         0.048359        -0.136028        -0.001730
 C         1.572038        -0.011377         0.027271
 O         1.967388         1.337541         0.132717
 C         2.249040        -0.957816         1.102098
 C         2.877195        -1.966985         0.543672
 C         3.017869        -1.799178        -0.955976
 C         3.667620        -0.480301        -1.415097
 C         2.145018        -0.550123        -1.279906
 O         1.396243        -0.327974        -2.410108
 H        -0.046459         0.592404        -0.767183
 H        -0.363774        -1.084317        -0.440180
 H        -0.397523         0.194890         0.894988
 H         2.911750         1.311067         0.471719
 H         2.001113        -0.876096         2.122490
 H         3.431294        -2.687217         1.127757
 H         3.161125        -2.630066        -1.702044
 H         4.160363         0.151266        -0.719000
 H         3.904337        -0.458833        -2.505041
 H         1.601858        -1.025520        -3.069861
