19
Iteration:  4991charge 0 multiplicity 1
 C         0.071935        -0.292281         0.087436
 C         1.627065         0.058792         0.053685
 O         1.834322         1.485165         0.244945
 C         2.377082        -0.880178         1.088984
 C         2.802804        -1.938623         0.492080
 C         2.945324        -1.851818        -0.937616
 C         3.689529        -0.415921        -1.425726
 C         2.201727        -0.616073        -1.234935
 O         1.401612        -0.469042        -2.595847
 H        -0.573607         0.455757        -0.207804
 H        -0.150810        -1.184200        -0.552022
 H        -0.138629        -0.618211         1.038118
 H         2.804491         1.845775        -0.052933
 H         2.141892        -0.934608         2.138578
 H         3.261837        -2.878564         0.847414
 H         2.953145        -2.683203        -1.719855
 H         4.247685         0.113089        -0.725430
 H         4.146270        -0.475439        -2.389606
 H         2.050469         0.151748        -3.030169
