19
Iteration:  2818
 C         0.153564        -0.243770        -0.149684
 C         1.685901         0.026859         0.040871
 O         1.846120         1.369529         0.397757
 C         2.172082        -0.877191         1.088722
 C         2.907413        -1.864724         0.491330
 C         2.920485        -1.649340        -0.970319
 C         3.724632        -0.560613        -1.501673
 C         2.211578        -0.468989        -1.327768
 O         1.404235        -0.590932        -2.398381
 H        -0.189688         0.410950        -1.037875
 H        -0.116150        -1.296344        -0.307607
 H        -0.325016         0.169776         0.860241
 H         2.848289         1.415148         0.586528
 H         2.101818        -0.763817         2.136292
 H         3.248451        -2.859477         0.883102
 H         2.578458        -2.558452        -1.617343
 H         4.521929        -0.080928        -0.872627
 H         3.834553        -0.622015        -2.522547
 H         1.293997         0.192689        -2.930814
