19
Iteration:  1796
 C         0.065722        -0.140303        -0.009387
 C         1.633437         0.004869        -0.004919
 O         2.009702         1.330524         0.244846
 C         2.171651        -0.935991         1.025849
 C         2.890909        -1.944036         0.537074
 C         3.025145        -1.816779        -0.977459
 C         3.711872        -0.492871        -1.300069
 C         2.214047        -0.559333        -1.336864
 O         1.311467        -0.409537        -2.428604
 H        -0.390657         0.704957        -0.500662
 H        -0.324261        -1.058165        -0.555358
 H        -0.346055        -0.289604         0.987611
 H         1.880497         1.949746        -0.538830
 H         2.050024        -0.611737         2.090239
 H         3.018907        -2.791125         1.139075
 H         3.121622        -2.709737        -1.569897
 H         4.364322         0.163782        -0.663537
 H         4.177650        -0.434539        -2.209870
 H         1.869726        -0.236837        -3.225381
