19
Iteration:   411
 C         0.036490        -0.163411        -0.124189
 C         1.668294         0.049300        -0.012925
 O         1.773597         1.512238         0.297934
 C         2.126239        -1.000102         1.092317
 C         2.752754        -2.070676         0.611642
 C         2.982546        -1.758070        -0.927911
 C         3.779546        -0.468047        -1.448319
 C         2.333905        -0.530438        -1.306007
 O         1.506372        -0.532102        -2.443928
 H        -0.153880        -0.617950         0.902996
 H        -0.408946         0.853632        -0.260788
 H        -0.173205        -1.019080        -0.813893
 H         2.571966         1.810454        -0.084693
 H         1.866396        -0.649713         2.156421
 H         3.324547        -2.875764         1.192150
 H         2.932382        -2.559819        -1.685445
 H         4.261877         0.247925        -0.768557
 H         4.103822        -0.551011        -2.553360
 H         2.144131        -0.211614        -3.139616
