19
Iteration:   700
 C        -0.055795        -0.011154        -0.125082
 C         1.556508        -0.048522        -0.026479
 O         1.810262         1.332220         0.343350
 C         2.113463        -0.952502         1.185352
 C         2.957236        -1.854923         0.633842
 C         3.037301        -1.860273        -0.868821
 C         3.708356        -0.579547        -1.417179
 C         2.266363        -0.580904        -1.331707
 O         1.519518        -0.406482        -2.586278
 H        -0.616036        -0.146544         0.825551
 H        -0.369259         0.915843        -0.648241
 H        -0.418089        -0.853970        -0.877273
 H         2.669835         1.699961        -0.057289
 H         2.167431        -0.533109         2.183953
 H         3.766471        -2.346961         1.108859
 H         3.047348        -2.684901        -1.540417
 H         4.409124        -0.077395        -0.738239
 H         4.030458        -0.737445        -2.424863
 H         2.139139        -0.583877        -3.318108
