19
Iteration:  4908
 C         2.589182        -1.738714        -0.443413
 C         2.501197        -0.695429         0.589333
 O         3.387332        -0.543202         1.765449
 C         3.407077         0.447998         0.656700
 C         2.718292         1.546814         1.214920
 C         1.475191         1.199293         1.557524
 C         1.154177        -0.178120         1.008710
 C         0.055935         0.039411        -0.091817
 O         0.606887        -1.107123         1.872724
 H         3.657561        -1.878497        -0.838255
 H         2.231365        -2.810912        -0.067007
 H         2.139430        -1.370021        -1.409341
 H         4.345704         0.528935         0.085610
 H         3.129664         2.467096         1.501462
 H         0.750134         1.665584         2.239692
 H         0.433690         0.789836        -0.869994
 H        -0.112176        -0.959862        -0.485236
 H        -0.695418         0.581320         0.492603
 H         0.963041        -0.930437         2.732087
