19
Iteration:  2367charge 0 multiplicity 1
 C         2.509129        -1.660713        -0.602345
 C         2.575739        -0.587277         0.558730
 O         3.401540        -0.767929         1.775524
 C         3.554250         0.386095         0.951889
 C         2.720024         1.530839         1.483241
 C         1.432595         1.180504         1.578745
 C         1.095730        -0.147453         0.975337
 C         0.240899         0.007006        -0.405071
 O         0.443305        -0.987134         1.921995
 H         2.059600        -2.607386        -0.256676
 H         1.845015        -1.284617        -1.444199
 H         3.454088        -1.900946        -1.209292
 H         4.579243         0.475375         0.538823
 H         2.989625         2.516448         1.832646
 H         0.568712         1.868777         1.831371
 H         0.884010         0.476269        -1.188355
 H        -0.294349        -0.924859        -0.817904
 H        -0.527904         0.859021        -0.211949
 H         0.947315        -0.778114         2.786361
