19
Iteration:  3239charge 0 multiplicity 1
 C         2.920467        -1.676663        -0.674254
 C         2.561274        -0.677044         0.470839
 O         3.430085        -0.725295         1.625271
 C         3.424757         0.466994         0.764131
 C         2.678090         1.555120         1.388095
 C         1.359626         1.288470         1.481279
 C         1.056396        -0.150515         0.996606
 C        -0.138431        -0.028302         0.044763
 O         0.597097        -1.062253         2.049229
 H         4.007683        -1.653336        -0.830822
 H         2.566032        -2.737702        -0.433857
 H         2.346133        -1.393264        -1.600487
 H         4.411844         0.718018         0.303651
 H         3.083987         2.477067         1.725610
 H         0.570296         1.990975         1.834290
 H         0.043357         0.022337        -0.999176
 H        -0.819514        -0.851727         0.181924
 H        -0.756934         0.858803         0.224676
 H         1.330064        -1.038455         2.643379
