19
Iteration:   274
 C         2.486445        -1.686565        -0.688660
 C         2.526946        -0.649839         0.490294
 O         3.220788        -0.892001         1.786864
 C         3.503283         0.322862         0.919026
 C         2.787308         1.520118         1.427059
 C         1.448133         1.319713         1.435750
 C         1.149192        -0.074207         0.982158
 C         0.250983        -0.021004        -0.243327
 O         0.562638        -0.818367         2.058881
 H         1.931956        -2.529822        -0.358845
 H         1.876068        -1.217842        -1.412703
 H         3.450895        -1.931811        -1.154600
 H         4.547034         0.358140         0.489940
 H         3.177630         2.402045         1.849571
 H         0.660434         1.915150         1.819680
 H        -0.033289        -1.027851        -0.478304
 H        -0.592381         0.647563        -0.163972
 H         0.835116         0.170791        -1.090828
 H         1.341726        -1.058929         2.608445
