19
Iteration:  3775charge 0 multiplicity 1
 C         2.647625        -1.662957        -0.669140
 C         2.558468        -0.673777         0.532182
 O         3.508452        -0.714012         1.648467
 C         3.347561         0.530912         0.703799
 C         2.559174         1.646996         1.221888
 C         1.409538         1.158544         1.613267
 C         1.113119        -0.209609         1.093306
 C         0.107705        -0.068984        -0.052255
 O         0.585790        -0.994304         2.077192
 H         1.745528        -2.170568        -0.598822
 H         2.956856        -1.072725        -1.488496
 H         3.530034        -2.341535        -0.596873
 H         4.345306         0.428168         0.191545
 H         2.886949         2.608834         1.485702
 H         0.680386         1.789729         2.106365
 H         0.308001         0.628712        -0.915440
 H         0.197985        -1.040672        -0.514660
 H        -0.906844         0.130867         0.200561
 H         1.392175        -1.147330         2.705833
