19
Iteration:  3521charge 0 multiplicity 1
 C         2.727800        -1.691229        -0.532982
 C         2.469007        -0.656304         0.525812
 O         3.505100        -0.690412         1.566516
 C         3.432359         0.450713         0.794769
 C         2.703857         1.599361         1.435963
 C         1.408715         1.295968         1.495977
 C         1.108778        -0.169762         1.044788
 C         0.045573        -0.005929        -0.051495
 O         0.511985        -1.128459         1.928118
 H         1.783810        -1.749025        -1.105520
 H         3.508624        -1.492207        -1.342908
 H         2.873450        -2.642842        -0.042714
 H         4.354142         0.605774         0.259131
 H         3.105912         2.598649         1.686534
 H         0.519122         1.859787         1.804680
 H         0.537799         0.338700        -0.924744
 H        -0.449169        -0.982551        -0.198847
 H        -0.751289         0.776909         0.143836
 H         1.056745        -0.956620         2.748632
