19
Iteration:  1217charge 0 multiplicity 1
 C         2.536069        -1.664742        -0.464447
 C         2.513224        -0.587214         0.541266
 O         3.449296        -0.835690         1.615163
 C         3.557391         0.429056         0.966440
 C         2.768262         1.525282         1.525716
 C         1.425207         1.243313         1.583679
 C         1.095933        -0.089599         0.959336
 C         0.124615         0.002791        -0.285590
 O         0.475854        -1.009142         1.825365
 H         1.904949        -2.498329        -0.058448
 H         2.108097        -1.337780        -1.443110
 H         3.601603        -2.046725        -0.519135
 H         4.474836         0.591668         0.386659
 H         3.071762         2.602461         1.636667
 H         0.730339         2.028916         1.853466
 H         0.736436         0.139727        -1.241493
 H        -0.794630        -0.698596        -0.288632
 H        -0.380351         1.135819        -0.262821
 H         1.060530        -1.578293         2.470484
