19
Iteration:  1457charge 0 multiplicity 1
 C         2.493149        -1.802071        -0.348224
 C         2.482775        -0.636237         0.515171
 O         3.409942        -0.790526         1.614824
 C         3.513918         0.422147         0.843091
 C         2.716170         1.534947         1.573898
 C         1.431117         1.192787         1.610883
 C         1.160913        -0.047358         0.885618
 C         0.190814         0.174046        -0.368327
 O         0.499406        -0.988492         1.855646
 H         1.921377        -2.613978         0.177743
 H         2.135050        -1.578047        -1.363166
 H         3.587302        -2.220523        -0.521969
 H         4.484739         0.429680         0.397818
 H         3.119701         2.322535         2.250736
 H         0.687887         1.739217         2.269405
 H         0.782657         0.757304        -1.121181
 H        -0.108466        -0.703733        -0.974205
 H        -0.712198         0.766755         0.058539
 H         1.245817        -1.359260         2.246535
