19
Iteration:  3568
 C         2.511681        -1.718362        -0.574575
 C         2.511973        -0.539001         0.443264
 O         3.316773        -0.675377         1.603810
 C         3.511163         0.508254         0.865271
 C         2.686872         1.589795         1.407229
 C         1.416122         1.209221         1.588165
 C         1.135671        -0.155852         0.963115
 C         0.084199        -0.126528        -0.196052
 O         0.711497        -1.021537         2.073884
 H         2.441398        -1.440124        -1.627312
 H         3.498090        -2.190646        -0.427069
 H         1.722810        -2.478370        -0.319884
 H         4.441949         0.739398         0.314051
 H         2.987520         2.509351         1.885882
 H         0.596509         1.683729         2.145624
 H         0.335848         0.680545        -0.949408
 H         0.039726        -1.122578        -0.633539
 H        -0.864588         0.215510         0.148737
 H         1.620040        -1.517246         2.164035
