19
Iteration:  2579
 C         2.786415        -1.759482        -0.548966
 C         2.461273        -0.646361         0.537390
 O         3.335966        -0.713262         1.803232
 C         3.498879         0.377434         0.870427
 C         2.751773         1.550529         1.334608
 C         1.446072         1.240320         1.604881
 C         1.123603        -0.124507         1.012961
 C         0.114813         0.176193        -0.178675
 O         0.427853        -1.095936         1.783196
 H         1.999047        -1.756237        -1.260132
 H         3.763481        -1.582321        -0.966040
 H         2.718234        -2.735918        -0.001726
 H         4.324162         0.243959         0.215882
 H         3.173248         2.568042         1.200366
 H         0.646627         1.936163         1.986406
 H         0.565326         1.070803        -0.686640
 H        -0.115359        -0.708094        -0.781514
 H        -0.777728         0.639553         0.262872
 H         0.845494        -1.369352         2.557278
