19
Iteration:  2712
 C         2.786629        -1.448633        -0.594083
 C         2.510068        -0.646509         0.572555
 O         3.228423        -1.007041         1.779621
 C         3.501365         0.411900         0.919707
 C         2.742757         1.648027         1.349845
 C         1.435162         1.292954         1.364130
 C         1.137146        -0.128432         0.965944
 C         0.051085        -0.032618        -0.140821
 O         0.534059        -1.045610         1.980093
 H         3.796772        -1.504394        -0.701074
 H         2.320105        -2.453339        -0.615728
 H         2.442857        -0.879662        -1.490573
 H         4.494432         0.271382         0.375833
 H         3.262762         2.586508         1.556783
 H         0.737138         2.090033         1.494962
 H         0.211210         0.184896        -1.178535
 H        -0.218305        -1.073170        -0.274103
 H        -0.814674         0.583423         0.199716
 H         1.153292        -1.001700         2.736636
