19
Iteration:  1454
 C         2.491158        -1.778647        -0.367977
 C         2.490196        -0.640874         0.520053
 O         3.412836        -0.775963         1.606443
 C         3.492140         0.402186         0.863712
 C         2.732841         1.530473         1.569255
 C         1.425638         1.207590         1.614200
 C         1.169735        -0.069532         0.894004
 C         0.211546         0.182679        -0.364992
 O         0.466098        -0.998995         1.858050
 H         1.936792        -2.586727         0.142553
 H         2.093496        -1.701266        -1.381659
 H         3.534686        -2.167380        -0.553264
 H         4.440680         0.511495         0.358453
 H         3.154368         2.401844         2.117525
 H         0.754562         1.761911         2.270178
 H         0.782889         0.720995        -1.107655
 H         0.018809        -0.775882        -0.927567
 H        -0.667185         0.736033         0.022892
 H         1.286838        -1.373261         2.381271
