19
Iteration:   758
 C         2.665066        -1.651014        -0.610722
 C         2.502220        -0.659238         0.487570
 O         3.127461        -0.914294         1.856636
 C         3.487362         0.242334         1.064490
 C         2.814599         1.591711         1.431262
 C         1.498530         1.361463         1.264482
 C         1.122316        -0.066913         0.882143
 C         0.046396         0.066045        -0.143615
 O         0.655293        -0.962552         1.939822
 H         1.771553        -2.292114        -0.688000
 H         2.967003        -1.185170        -1.504182
 H         3.569732        -2.325398        -0.393943
 H         4.480995         0.313262         0.568572
 H         3.317016         2.572149         1.624103
 H         0.706429         2.168991         1.277721
 H         0.008969        -0.555592        -0.991312
 H        -0.904157        -0.030058         0.320884
 H         0.093407         1.076083        -0.470597
 H         1.383207        -1.198978         2.512215
