19
Iteration:  3073
 C         2.650679        -1.684536        -0.649978
 C         2.536234        -0.677577         0.522292
 O         3.433304        -0.871178         1.633219
 C         3.499260         0.434545         0.852530
 C         2.636548         1.635078         1.444213
 C         1.296481         1.334020         1.538449
 C         1.083039        -0.113150         1.036696
 C         0.124639        -0.134799        -0.196358
 O         0.598217        -0.928988         2.047429
 H         1.978073        -1.351974        -1.551242
 H         3.602785        -1.493753        -1.088481
 H         2.474211        -2.724195        -0.454129
 H         4.462023         0.562641         0.359890
 H         3.043445         2.661991         1.581003
 H         0.565829         2.111599         1.676655
 H         0.565113         0.645950        -0.818471
 H         0.080877        -1.114175        -0.608264
 H        -0.858374         0.088472         0.080477
 H         1.220733        -0.978491         2.863979
