19
Iteration:  4785charge 0 multiplicity 1
 C         2.790383        -1.537173        -0.701202
 C         2.567314        -0.632302         0.526267
 O         3.327550        -0.977806         1.665030
 C         3.503311         0.400336         0.924354
 C         2.711529         1.622745         1.358595
 C         1.391998         1.435840         1.265799
 C         1.056054        -0.111380         1.029916
 C        -0.097371        -0.288896        -0.056126
 O         0.620326        -0.867839         2.139943
 H         3.868843        -1.485359        -0.956800
 H         2.434874        -2.634747        -0.450690
 H         2.228360        -1.107360        -1.620586
 H         4.468206         0.409928         0.459855
 H         3.211627         2.554006         1.751631
 H         0.532306         2.123613         1.306250
 H         0.237351         0.140529        -0.997532
 H        -0.295474        -1.359597         0.020527
 H        -0.862602         0.387056         0.310899
 H         1.490975        -1.037157         2.630506
