19
Iteration:  1580charge 0 multiplicity 1
 C         2.723311        -1.560196        -0.702058
 C         2.487711        -0.669188         0.486531
 O         3.313548        -1.066879         1.622324
 C         3.512836         0.301984         1.087987
 C         2.770239         1.475402         1.648108
 C         1.456373         1.342882         1.395366
 C         1.109159         0.007772         0.930308
 C         0.074746        -0.185387        -0.292230
 O         0.470297        -0.667536         2.005608
 H         2.154852        -2.549774        -0.496782
 H         2.393104        -1.099935        -1.733574
 H         3.747209        -1.853956        -0.836531
 H         4.582290         0.528495         0.821160
 H         3.189476         2.367060         2.149625
 H         0.761566         2.085570         1.767561
 H         0.563964         0.331555        -1.166804
 H        -0.044641        -1.293351        -0.482544
 H        -0.914015         0.231348        -0.107968
 H         0.968218        -0.425622         2.890566
