19
Iteration:  3192charge 0 multiplicity 1
 C         2.525929        -1.657703        -0.588219
 C         2.501793        -0.655617         0.595063
 O         3.570302        -0.705219         1.669823
 C         3.368104         0.497894         0.673461
 C         2.661002         1.582159         1.407646
 C         1.365732         1.196182         1.572614
 C         1.143893        -0.133624         1.020454
 C         0.177933        -0.156655        -0.164443
 O         0.548307        -0.949288         1.997357
 H         3.284185        -1.163760        -1.320523
 H         2.880865        -2.644720        -0.458125
 H         1.588721        -1.782732        -1.068718
 H         4.139449         0.746160        -0.044428
 H         3.088005         2.463684         1.929434
 H         0.628050         1.580174         2.293210
 H         0.468743         0.618143        -0.922995
 H         0.221366        -1.188738        -0.513638
 H        -0.839426         0.024565         0.122004
 H         1.275367        -1.115624         2.611571
