19
Iteration:  3184charge 0 multiplicity 1
 C         2.529979        -1.718541        -0.608394
 C         2.454410        -0.662820         0.552736
 O         3.620306        -0.658061         1.663913
 C         3.371251         0.481633         0.716867
 C         2.631309         1.591908         1.458732
 C         1.384811         1.262319         1.575127
 C         1.111657        -0.143833         0.987903
 C         0.185734        -0.151666        -0.178622
 O         0.571567        -0.966063         2.030219
 H         3.092179        -1.352119        -1.535316
 H         2.949646        -2.663194        -0.147665
 H         1.551896        -1.816911        -1.090386
 H         4.236637         0.674410         0.020264
 H         3.157054         2.355563         2.016491
 H         0.546538         1.574702         2.272379
 H         0.432816         0.566277        -0.932752
 H         0.038658        -0.941320        -0.877042
 H        -0.829270         0.079857         0.077294
 H         1.292723        -1.259903         2.542404
