19
Iteration:  4894charge 0 multiplicity 1
 C         2.749640        -1.737127        -0.508110
 C         2.502118        -0.711759         0.585488
 O         3.420071        -0.609117         1.716936
 C         3.459756         0.413396         0.721225
 C         2.730367         1.680303         1.232150
 C         1.508334         1.212764         1.531799
 C         1.087363        -0.195464         0.956217
 C        -0.029049         0.022212        -0.054218
 O         0.511338        -1.106612         1.979132
 H         3.767774        -2.066812        -0.549162
 H         2.015304        -2.576673        -0.528257
 H         2.354232        -1.116808        -1.351072
 H         4.390920         0.429114         0.102223
 H         3.296902         2.610359         1.436685
 H         0.743557         1.896559         1.820106
 H         0.313549         0.655429        -0.851012
 H        -0.488355        -0.811926        -0.571425
 H        -0.901803         0.276589         0.498803
 H         1.067191        -0.926178         2.782276
