19
Iteration:  1776charge 0 multiplicity 1
 C         2.543010        -1.694168        -0.530275
 C         2.526924        -0.686149         0.582543
 O         3.241799        -0.698565         1.810838
 C         3.576956         0.371969         0.871157
 C         2.760180         1.592058         1.351109
 C         1.487135         1.246922         1.581057
 C         1.169166        -0.170365         0.974583
 C         0.251495         0.163331        -0.197151
 O         0.405842        -1.097742         1.762800
 H         2.269359        -2.747261        -0.141207
 H         1.731086        -1.503792        -1.329683
 H         3.504973        -1.810283        -0.916439
 H         4.579916         0.331738         0.488319
 H         3.215213         2.555260         1.539560
 H         0.772929         1.856732         2.169185
 H         0.923584         0.704008        -0.894964
 H        -0.217108        -0.757368        -0.704730
 H        -0.557828         0.778182         0.165941
 H         1.191178        -1.418096         2.349032
