19
Iteration:  1658charge 0 multiplicity 1
 C         2.678253        -1.666595        -0.571518
 C         2.503331        -0.721425         0.585499
 O         3.286319        -0.889117         1.723014
 C         3.518048         0.347371         0.932598
 C         2.723940         1.589240         1.384642
 C         1.407801         1.306937         1.481754
 C         1.105423        -0.131234         0.995910
 C         0.252480         0.174906        -0.149264
 O         0.448194        -1.053915         1.881236
 H         1.982770        -2.535155        -0.558871
 H         2.361392        -1.041308        -1.478101
 H         3.707829        -1.927923        -0.580627
 H         4.445267         0.478323         0.373096
 H         3.321271         2.518407         1.305852
 H         0.578764         2.067043         1.730588
 H         0.871992         0.891234        -0.698931
 H         0.171982        -0.763049        -0.826815
 H        -0.714362         0.603294        -0.069338
 H         0.803990        -0.873634         2.725314
