19
Iteration:  2764
 C         2.734481        -1.630443        -0.607489
 C         2.508883        -0.587896         0.449069
 O         3.233819        -0.864572         1.661571
 C         3.492128         0.453487         0.879633
 C         2.729979         1.517583         1.646362
 C         1.414321         1.288027         1.455333
 C         1.100992        -0.097245         0.858633
 C         0.071145        -0.211568        -0.238465
 O         0.607722        -0.813042         2.036979
 H         3.098976        -2.477260        -0.063402
 H         1.785129        -2.000084        -1.058985
 H         3.454157        -1.590777        -1.498375
 H         4.489942         0.541477         0.388824
 H         3.346848         2.227421         2.171869
 H         0.724368         1.807108         2.105412
 H        -0.120318         0.756260        -0.736533
 H         0.130924        -0.943065        -1.039521
 H        -0.970621        -0.268567         0.189365
 H         1.529235        -0.855314         2.547021
