19
Iteration:  4355
 C         2.628577        -1.691662        -0.472456
 C         2.469993        -0.680665         0.561334
 O         3.603601        -0.690509         1.513981
 C         3.353467         0.552683         0.658507
 C         2.577853         1.657480         1.260888
 C         1.383850         1.274623         1.662420
 C         1.103372        -0.204149         1.034903
 C         0.119903        -0.116184        -0.128908
 O         0.576824        -1.062423         2.083579
 H         2.110829        -1.503043        -1.425046
 H         3.693204        -1.785248        -0.782413
 H         2.399781        -2.725104        -0.227149
 H         4.170969         0.757645        -0.032520
 H         3.090993         2.565426         1.555504
 H         0.719442         1.847002         2.288758
 H         0.702422         0.400916        -0.919605
 H        -0.287345        -1.086586        -0.506658
 H        -0.813705         0.362628         0.232541
 H         1.246972        -1.157995         2.833204
