19
Iteration:   338charge 0 multiplicity 1
 C         2.746650        -1.960618        -0.367396
 C         2.465529        -0.734999         0.521721
 O         3.343667        -0.736164         1.670018
 C         3.517138         0.395175         0.807993
 C         2.968895         1.653601         1.416145
 C         1.620857         1.223787         1.580698
 C         1.091338        -0.058817         0.949882
 C        -0.038228         0.211741        -0.100794
 O         0.282128        -0.962830         1.705843
 H         2.537680        -2.883323         0.189670
 H         2.335499        -2.023504        -1.360364
 H         3.881431        -1.955175        -0.532902
 H         4.446628         0.500401         0.163157
 H         3.423486         2.600863         1.737237
 H         0.869106         1.865273         2.028434
 H        -0.372773        -0.696315        -0.651816
 H        -0.956632         0.502560         0.487204
 H         0.116030         1.101231        -0.701867
 H         0.796649        -1.450695         2.417663
