19
Iteration:   893charge 0 multiplicity 1
 C         2.733026        -1.907639        -0.480326
 C         2.458384        -0.670713         0.479971
 O         3.211210        -0.724095         1.708854
 C         3.472586         0.366667         0.902134
 C         2.847876         1.598173         1.551120
 C         1.558668         1.312184         1.539917
 C         1.114705        -0.096555         0.893588
 C         0.036252         0.192545        -0.172301
 O         0.519803        -1.001011         1.785505
 H         2.168456        -2.738355        -0.111612
 H         2.437426        -1.613559        -1.512619
 H         3.754592        -2.092303        -0.515550
 H         4.468186         0.355804         0.357891
 H         3.418225         2.460596         1.977873
 H         0.570238         1.703256         1.930271
 H        -0.359671         1.142115         0.089924
 H         0.277673         0.222618        -1.204176
 H        -0.733604        -0.571312        -0.123241
 H         1.200976        -1.665127         2.128530
