19
Iteration:  4819
 C         2.561800        -1.491936        -0.707789
 C         2.511358        -0.593373         0.483442
 O         3.255803        -0.791066         1.719909
 C         3.599513         0.325882         0.918832
 C         2.694383         1.530444         1.433889
 C         1.332638         1.291673         1.359218
 C         1.140531        -0.050030         0.911235
 C         0.040961        -0.437122        -0.122968
 O         0.762322        -0.749435         2.124366
 H         3.388132        -2.216654        -0.603547
 H         1.604019        -2.218275        -0.678339
 H         2.655419        -0.746197        -1.588591
 H         4.610613         0.339499         0.432373
 H         3.174787         2.346648         2.084612
 H         0.575643         2.001591         1.649665
 H         0.336132        -0.360877        -1.199128
 H        -0.228582        -1.523474        -0.159427
 H        -0.953081         0.045710         0.094752
 H         1.537168        -0.783450         2.652715
