19
Iteration:   925charge 0 multiplicity 1
 C         2.623981        -1.759549        -0.370890
 C         2.547981        -0.536972         0.436403
 O         3.412892        -0.862411         1.659320
 C         3.551616         0.356096         0.876538
 C         2.754265         1.492370         1.498286
 C         1.398179         1.227591         1.589871
 C         1.057921        -0.036270         0.897590
 C         0.066209         0.151071        -0.251771
 O         0.537566        -1.010132         1.780657
 H         1.951919        -2.400487         0.195735
 H         2.194609        -1.639506        -1.405442
 H         3.530479        -2.252983        -0.328352
 H         4.545065         0.588715         0.389357
 H         3.293632         2.228454         2.143178
 H         0.603341         1.791234         2.192605
 H         0.104305         1.132469        -0.558467
 H         0.217154        -0.378302        -1.129211
 H        -0.926221         0.076657         0.151692
 H         0.842431        -0.789964         2.683159
