19
Iteration:  4923
 C         2.531337        -1.827315        -0.392500
 C         2.520349        -0.598753         0.521261
 O         3.427916        -0.664373         1.671272
 C         3.492453         0.480250         0.663897
 C         2.634619         1.665063         1.260742
 C         1.388473         1.238999         1.639887
 C         1.120259        -0.114688         1.011054
 C         0.205705         0.041934        -0.130207
 O         0.589168        -1.148861         1.900909
 H         3.530669        -1.947020        -0.878237
 H         2.262505        -2.638408         0.231280
 H         1.711742        -1.913374        -1.091782
 H         4.406294         0.545936         0.106751
 H         3.130280         2.655847         1.500565
 H         0.740422         1.796069         2.348118
 H         0.551500         0.650388        -0.976159
 H        -0.159639        -0.943928        -0.512591
 H        -0.818469         0.553013         0.023950
 H         1.218341        -1.238230         2.697992
