19
Iteration:  3798charge 0 multiplicity 1
 C         2.471697        -1.684985        -0.548092
 C         2.483684        -0.563248         0.549169
 O         3.526293        -0.654742         1.536478
 C         3.479704         0.555994         0.815765
 C         2.650003         1.592214         1.400297
 C         1.339523         1.240567         1.462222
 C         1.160072        -0.181271         1.054862
 C         0.106309        -0.149007        -0.206984
 O         0.661188        -1.114005         2.107416
 H         1.489770        -2.126800        -0.379126
 H         2.746076        -1.246459        -1.453680
 H         3.289534        -2.378309        -0.335697
 H         4.307948         0.733308         0.115870
 H         3.067686         2.537793         1.626693
 H         0.535243         1.747715         2.033312
 H         0.372641         0.513683        -1.071497
 H        -0.173566        -1.135713        -0.610626
 H        -0.753964         0.330496         0.284734
 H         1.396992        -1.265178         2.660363
