19
Iteration:  3722
 C         2.763681        -1.740777        -0.529489
 C         2.561705        -0.624767         0.477885
 O         3.454682        -0.742843         1.565421
 C         3.472027         0.513164         0.720954
 C         2.670472         1.638782         1.408923
 C         1.360631         1.261127         1.568797
 C         1.103789        -0.093784         0.898099
 C        -0.154162        -0.094583         0.010793
 O         0.638586        -1.043754         2.003801
 H         2.640315        -2.740905        -0.018803
 H         2.078681        -1.632814        -1.369816
 H         3.803129        -1.482897        -0.833882
 H         4.394491         0.516950         0.104697
 H         3.078620         2.572906         1.734542
 H         0.578879         1.632822         2.227014
 H         0.027580         0.442924        -0.975040
 H        -0.466600        -1.133639        -0.227443
 H        -0.946301         0.394571         0.598975
 H         1.546547        -1.158707         2.473149
