19
Iteration:  1261
 C         2.977729        -1.614110        -0.656023
 C         2.427252        -0.757722         0.537292
 O         3.353570        -0.796112         1.624072
 C         3.412432         0.307788         0.794050
 C         2.777096         1.412676         1.547430
 C         1.442762         1.197736         1.576363
 C         1.059553        -0.139740         0.969365
 C         0.097895         0.070393        -0.220364
 O         0.351696        -0.808380         2.028174
 H         2.544456        -2.635178        -0.762288
 H         2.749563        -1.093822        -1.597453
 H         4.141386        -1.747545        -0.552475
 H         4.331167         0.500569         0.263220
 H         3.363506         2.349562         1.561419
 H         0.724899         1.671378         2.192556
 H         0.699949         0.334347        -1.137465
 H        -0.572677        -0.844497        -0.183720
 H        -0.787388         0.916620        -0.166177
 H         0.735389        -0.377234         2.871426
