19
Iteration:  4620
 C         2.741170        -1.777877        -0.495429
 C         2.463031        -0.717542         0.495945
 O         3.594245        -0.606531         1.568299
 C         3.358561         0.448695         0.694878
 C         2.666533         1.580527         1.357746
 C         1.443687         1.200683         1.554755
 C         1.151863        -0.165408         1.045237
 C         0.017696        -0.003169        -0.102070
 O         0.453236        -1.020856         2.055751
 H         3.388403        -2.481322         0.069459
 H         1.787173        -2.037607        -0.968930
 H         3.284138        -1.216706        -1.291016
 H         4.092061         0.683270        -0.142481
 H         3.222170         2.511386         1.493685
 H         0.817195         1.822994         2.193514
 H         0.289657         0.623871        -0.954938
 H        -0.415742        -0.986478        -0.383370
 H        -0.833910         0.633424         0.138551
 H         1.063591        -1.174410         2.746995
