19
Iteration:  1804
 C         2.722770        -1.616240        -0.588391
 C         2.473281        -0.668223         0.570292
 O         3.313513        -0.902870         1.777605
 C         3.556114         0.294500         0.967411
 C         2.816901         1.605112         1.420391
 C         1.493882         1.334323         1.478809
 C         1.071689        -0.081218         0.973978
 C         0.049604         0.047257        -0.224777
 O         0.403273        -0.960430         1.868065
 H         2.367427        -2.598093        -0.335228
 H         2.215063        -1.289159        -1.475873
 H         3.837653        -1.819678        -0.709851
 H         4.491418         0.222670         0.383601
 H         3.304080         2.594819         1.604218
 H         0.818696         2.106066         1.884469
 H         0.360604         0.822077        -0.931423
 H         0.155575        -0.862654        -0.791065
 H        -0.977496         0.139533         0.165219
 H         1.299257        -1.358307         2.208335
