19
Iteration:  1924charge 0 multiplicity 1
 C         2.790840        -1.528204        -0.733381
 C         2.583992        -0.687579         0.496173
 O         3.214670        -0.923866         1.874043
 C         3.515405         0.304724         0.996748
 C         2.751151         1.506580         1.404833
 C         1.472846         1.225674         1.413031
 C         1.068752        -0.150776         0.924937
 C         0.042731         0.021669        -0.159235
 O         0.470199        -0.849878         1.944120
 H         2.308684        -2.543670        -0.769376
 H         2.467763        -0.981782        -1.614877
 H         3.930706        -1.597200        -0.889608
 H         4.557111         0.392253         0.731932
 H         3.211601         2.442464         1.588508
 H         0.715365         1.954075         1.747413
 H         0.405063         0.531615        -1.064328
 H        -0.345647        -0.976179        -0.390946
 H        -0.634186         0.735073         0.353289
 H         1.268191        -0.758595         2.606276
