19
Iteration:  4429charge 0 multiplicity 1
 C         2.599249        -1.691377        -0.443356
 C         2.520504        -0.564182         0.454204
 O         3.432402        -0.674441         1.573023
 C         3.451228         0.492493         0.727441
 C         2.642699         1.626108         1.285819
 C         1.362579         1.258209         1.558060
 C         1.109492        -0.181879         1.016754
 C        -0.080376        -0.085920        -0.070192
 O         0.818775        -1.092454         2.047255
 H         2.958423        -1.487821        -1.482848
 H         3.241612        -2.492498         0.005334
 H         1.715770        -2.360407        -0.585842
 H         4.466766         0.611163         0.301827
 H         3.152678         2.563626         1.306356
 H         0.477409         1.811940         1.801308
 H         0.084678         0.783661        -0.669914
 H        -0.374011        -1.023834        -0.571765
 H        -0.996359         0.068065         0.528174
 H         1.560554        -1.307385         2.594828
