19
Iteration:   623
 C         2.520642        -1.674684        -0.385411
 C         2.452032        -0.665075         0.659821
 O         3.335189        -0.789799         1.814279
 C         3.518747         0.334510         0.894722
 C         2.776770         1.655884         1.240442
 C         1.540336         1.268145         1.597499
 C         1.111124        -0.068984         0.996054
 C         0.204191         0.162586        -0.241942
 O         0.484384        -1.160791         1.675767
 H         1.935225        -2.624349        -0.161674
 H         2.004287        -1.208243        -1.328367
 H         3.534643        -1.969344        -0.622869
 H         4.335189         0.098845         0.266018
 H         3.422498         2.538742         1.296800
 H         0.831930         1.927574         2.076722
 H        -0.512115        -0.703921        -0.309602
 H        -0.359898         1.077130         0.099986
 H         0.772373         0.297324        -1.212981
 H         0.996284        -1.245213         2.420681
