19
Iteration:  4635charge 0 multiplicity 1
 C         2.801503        -1.799728        -0.516447
 C         2.435459        -0.694705         0.589352
 O         3.579016        -0.670444         1.550470
 C         3.342219         0.481697         0.558775
 C         2.684431         1.611764         1.295190
 C         1.396012         1.281765         1.672027
 C         0.995145        -0.142811         1.109722
 C         0.104217         0.056791        -0.085692
 O         0.470330        -1.067192         2.002269
 H         3.454898        -2.478960        -0.007185
 H         1.992034        -2.446169        -0.843596
 H         3.297771        -1.462786        -1.399982
 H         4.121093         0.586808        -0.133815
 H         3.183142         2.516713         1.610389
 H         0.555502         1.843643         2.121258
 H         0.865731         0.182438        -0.863685
 H        -0.403677        -0.892619        -0.215846
 H        -0.646438         0.768970         0.275794
 H         1.240735        -1.216747         2.633727
