19
Iteration:  2340charge 0 multiplicity 1
 C         2.773392        -1.777667        -0.489631
 C         2.465897        -0.667641         0.571933
 O         3.406484        -0.838793         1.652482
 C         3.393216         0.381074         0.819535
 C         2.740857         1.558241         1.459254
 C         1.396540         1.293561         1.596020
 C         1.135403        -0.083310         0.991939
 C         0.253283         0.125529        -0.192437
 O         0.342370        -0.969199         1.803054
 H         2.837525        -2.756737         0.036792
 H         1.991384        -1.808687        -1.251242
 H         3.718358        -1.487107        -0.924545
 H         4.387764         0.435367         0.362424
 H         3.260982         2.394932         1.956827
 H         0.644213         1.974056         1.963783
 H         0.644702         0.687864        -1.067531
 H        -0.220044        -0.687890        -0.702382
 H        -0.580617         0.670984         0.234671
 H         0.984658        -1.321927         2.518205
