19
Iteration:  2068
 C         2.824818        -1.769146        -0.588531
 C         2.540776        -0.684915         0.481579
 O         3.384352        -0.718298         1.719262
 C         3.464326         0.417261         0.815933
 C         2.757604         1.518933         1.422569
 C         1.487401         1.117883         1.669932
 C         1.015583        -0.113610         0.980061
 C         0.072304         0.156814        -0.200304
 O         0.350875        -0.947083         1.869011
 H         2.167877        -2.705370        -0.466541
 H         2.850832        -1.418357        -1.673752
 H         3.826535        -2.118054        -0.412321
 H         4.435295         0.660466         0.307024
 H         3.289801         2.415806         1.815962
 H         0.742408         1.603716         2.306442
 H         0.749349         0.142708        -1.115981
 H        -0.574464        -0.761578        -0.251014
 H        -0.427605         1.109669        -0.203351
 H         0.774839        -0.868738         2.803325
