19
Iteration:  3999
 C         2.694059        -1.638828        -0.712801
 C         2.531753        -0.724912         0.612809
 O         3.405215        -0.693051         1.757024
 C         3.473526         0.450095         0.757425
 C         2.621235         1.674416         1.270582
 C         1.408793         1.259757         1.550001
 C         1.071556        -0.107064         0.965754
 C         0.021036        -0.150879        -0.016467
 O         0.668349        -1.050403         1.977411
 H         2.933058        -2.642908        -0.406348
 H         1.649446        -1.700177        -1.199140
 H         3.565068        -1.224699        -1.273397
 H         4.507630         0.520506         0.238374
 H         3.018365         2.644411         1.570042
 H         0.568317         1.841735         2.071097
 H         0.354542        -0.162709        -1.147483
 H        -0.623878        -1.102402         0.039745
 H        -0.722956         0.683262         0.029145
 H         1.276411        -0.979834         2.701970
