19
Iteration:  2584
 C         2.749825        -1.740378        -0.522636
 C         2.465880        -0.588036         0.561254
 O         3.326606        -0.691613         1.831361
 C         3.487717         0.372924         0.860528
 C         2.755320         1.591044         1.289907
 C         1.501957         1.180581         1.592128
 C         1.112766        -0.182667         1.013859
 C         0.121383         0.176902        -0.178166
 O         0.403178        -1.107867         1.782112
 H         2.006143        -1.581095        -1.383341
 H         3.739898        -1.652065        -1.045910
 H         2.561020        -2.685841        -0.023606
 H         4.464642         0.330894         0.255231
 H         3.328858         2.508353         1.333509
 H         0.838695         1.896693         2.030450
 H         0.605813         0.970271        -0.708914
 H        -0.094001        -0.599880        -0.939239
 H        -0.896507         0.445194         0.191091
 H         0.984984        -1.435407         2.575855
