19
Iteration:  3718charge 0 multiplicity 1
 C         2.734843        -1.748670        -0.535493
 C         2.558123        -0.633299         0.470325
 O         3.455280        -0.736202         1.569125
 C         3.457037         0.514948         0.734776
 C         2.652314         1.643351         1.427343
 C         1.345407         1.273343         1.572650
 C         1.128162        -0.140813         0.888345
 C        -0.143949        -0.099706         0.002503
 O         0.673590        -1.011665         1.978052
 H         2.707794        -2.690438        -0.109794
 H         1.916821        -1.726976        -1.256283
 H         3.762510        -1.621184        -0.887688
 H         4.449491         0.539174         0.216607
 H         3.083029         2.614481         1.819309
 H         0.615999         1.733012         2.251345
 H         0.056960         0.432614        -0.915735
 H        -0.480670        -1.106817        -0.148147
 H        -0.878600         0.370168         0.620922
 H         1.487481        -1.151692         2.419322
