19
Iteration:  2726
 C         2.759699        -1.477734        -0.669121
 C         2.529016        -0.658467         0.577734
 O         3.278253        -0.964260         1.789808
 C         3.496488         0.336100         0.998605
 C         2.708067         1.546402         1.349379
 C         1.375660         1.346552         1.339134
 C         1.096110        -0.078825         0.919209
 C         0.040992        -0.088440        -0.107934
 O         0.614098        -0.953445         1.938895
 H         3.720117        -2.064354        -0.452756
 H         1.944878        -2.221292        -0.703812
 H         2.764229        -0.836715        -1.517928
 H         4.526695         0.470499         0.662451
 H         3.067700         2.580915         1.508095
 H         0.482938         1.872140         1.659141
 H         0.461278         0.651464        -0.790646
 H        -0.324846        -1.053019        -0.513160
 H        -0.788315         0.308009         0.472435
 H         1.354318        -1.006862         2.633067
