19
Iteration:  4778
 C         2.822317        -1.546894        -0.670917
 C         2.519812        -0.627212         0.521980
 O         3.339774        -0.925378         1.669561
 C         3.537239         0.362401         0.913626
 C         2.702453         1.542133         1.356987
 C         1.357353         1.365041         1.255143
 C         1.026506        -0.091550         0.980361
 C        -0.037339        -0.196252        -0.048794
 O         0.626706        -0.868743         2.171318
 H         3.851198        -1.324812        -0.918618
 H         2.658837        -2.627755        -0.703199
 H         2.228476        -1.372682        -1.549178
 H         4.527397         0.535573         0.405473
 H         3.088768         2.541834         1.600491
 H         0.572348         2.090482         1.458259
 H         0.000718         0.248654        -1.093653
 H        -0.490424        -1.210909        -0.009093
 H        -0.957583         0.224316         0.445514
 H         1.478366        -0.960455         2.715388
