19
Iteration:  1072
 C         2.550864        -1.617710        -0.686248
 C         2.463683        -0.644369         0.489386
 O         3.315911        -0.907996         1.744919
 C         3.462529         0.331815         0.958180
 C         2.769897         1.506651         1.598315
 C         1.404999         1.394426         1.479446
 C         1.124250        -0.012972         0.926326
 C         0.228392        -0.122833        -0.236334
 O         0.569080        -0.897895         1.935545
 H         1.913975        -2.522132        -0.500964
 H         2.208595        -1.115344        -1.623834
 H         3.624220        -1.894104        -0.745165
 H         4.457909         0.400667         0.562350
 H         3.266885         2.476847         1.869159
 H         0.563804         2.018981         1.851256
 H         0.800189         0.353080        -1.117299
 H        -0.190585        -1.184631        -0.376469
 H        -0.731093         0.512201        -0.164928
 H         1.428829        -1.040272         2.513925
