19
Iteration:  1236
 C         2.774406        -1.701978        -0.598590
 C         2.560685        -0.678187         0.496132
 O         3.420745        -0.834657         1.655070
 C         3.470902         0.412969         0.825163
 C         2.759030         1.581548         1.527660
 C         1.427707         1.195846         1.605886
 C         1.076435        -0.128526         0.925705
 C         0.127149         0.054122        -0.243888
 O         0.306728        -0.891491         1.959921
 H         2.225941        -2.672687        -0.431840
 H         2.505502        -1.320312        -1.663643
 H         3.807712        -1.950565        -0.568959
 H         4.438461         0.564559         0.271301
 H         3.331901         2.295628         2.159217
 H         0.709312         1.734606         2.248809
 H         0.638647         0.035712        -1.216604
 H        -0.698357        -0.648454         0.056201
 H        -0.482956         0.973953        -0.296396
 H         1.082608        -1.090689         2.642020
