19
Iteration:  1456
 C         2.490658        -1.792779        -0.353207
 C         2.484214        -0.638802         0.516590
 O         3.411042        -0.785481         1.611302
 C         3.508077         0.415445         0.849137
 C         2.720507         1.533444         1.572310
 C         1.429381         1.196181         1.611091
 C         1.166294        -0.053258         0.888301
 C         0.197122         0.176687        -0.368088
 O         0.489009        -0.992227         1.857128
 H         1.924337        -2.609009         0.172347
 H         2.126370        -1.617089        -1.368656
 H         3.588268        -2.211348        -0.537134
 H         4.462249         0.448962         0.392878
 H         3.130156         2.353579         2.217080
 H         0.705682         1.753525         2.278090
 H         0.785076         0.740231        -1.120035
 H        -0.066097        -0.728688        -0.969478
 H        -0.708903         0.765746         0.057488
 H         1.256166        -1.360747         2.282103
