19
Iteration:   259charge 0 multiplicity 1
 C         2.487535        -1.478839        -0.651957
 C         2.459802        -0.663416         0.573522
 O         3.304731        -0.983319         1.722912
 C         3.545421         0.289683         0.980290
 C         2.846424         1.571856         1.335318
 C         1.479703         1.333187         1.444473
 C         1.094204        -0.038566         1.002974
 C         0.214703        -0.199756        -0.243849
 O         0.473586        -0.801546         2.029913
 H         1.819799        -2.395262        -0.521433
 H         2.232536        -1.071620        -1.669487
 H         3.525856        -1.931978        -0.596860
 H         4.521485         0.315346         0.576797
 H         3.477793         2.487334         1.569678
 H         0.840569         2.143785         1.870393
 H         0.030754        -1.283916        -0.512425
 H        -0.812744         0.253307        -0.085167
 H         0.715894         0.466583        -1.020692
 H         1.216259        -1.063510         2.560806
