19
Iteration:  3301charge 0 multiplicity 1
 C         2.534887        -1.572503        -0.693759
 C         2.448666        -0.628808         0.511542
 O         3.395691        -0.817485         1.591556
 C         3.392724         0.539073         0.836289
 C         2.723026         1.672609         1.510666
 C         1.415542         1.331774         1.453991
 C         1.140167        -0.124351         0.998177
 C         0.122226        -0.329634        -0.074842
 O         0.692051        -1.005268         2.053247
 H         3.277941        -2.397455        -0.493773
 H         1.627347        -2.069429        -0.778117
 H         2.803287        -1.162496        -1.613096
 H         4.306126         0.733853         0.249289
 H         3.111113         2.662340         1.655493
 H         0.619637         2.080388         1.687303
 H         0.397786         0.190093        -1.040627
 H         0.147019        -1.419110        -0.155063
 H        -0.803165        -0.062074         0.412869
 H         1.346716        -0.916544         2.754992
