19
Iteration:  3793charge 0 multiplicity 1
 C         2.503078        -1.663584        -0.552959
 C         2.508265        -0.590640         0.543062
 O         3.531682        -0.675993         1.575188
 C         3.511033         0.520746         0.786255
 C         2.598236         1.602066         1.341473
 C         1.327980         1.228481         1.532361
 C         1.147777        -0.172565         1.038033
 C         0.101381        -0.165514        -0.196336
 O         0.638639        -1.074212         2.111067
 H         1.456223        -2.038386        -0.606207
 H         2.643589        -1.183841        -1.629905
 H         3.302129        -2.369625        -0.271229
 H         4.333171         0.861292         0.099087
 H         3.103412         2.609318         1.462492
 H         0.516659         1.637918         2.097057
 H         0.525109         0.595059        -0.873947
 H        -0.151856        -1.089629        -0.707226
 H        -0.721572         0.297726         0.354568
 H         1.463364        -1.292613         2.694494
