19
Iteration:  1649
 C         2.686774        -1.658381        -0.614040
 C         2.497961        -0.712908         0.562996
 O         3.259492        -0.899673         1.759377
 C         3.470069         0.344287         0.967988
 C         2.732662         1.566493         1.379268
 C         1.430475         1.273753         1.478287
 C         1.089144        -0.096609         0.993970
 C         0.179781         0.198242        -0.206772
 O         0.555165        -1.017895         1.883472
 H         2.090918        -2.564435        -0.493838
 H         2.557287        -1.288874        -1.613944
 H         3.763907        -1.990358        -0.650870
 H         4.528982         0.315688         0.769740
 H         3.232536         2.523066         1.519942
 H         0.580335         2.011586         1.604718
 H         0.613412         0.845393        -0.952855
 H        -0.059553        -0.809045        -0.528906
 H        -0.788489         0.631918         0.121239
 H         0.959714        -0.848690         2.701117
