19
Iteration:  1203
 C         2.414042        -1.694391        -0.436342
 C         2.520572        -0.563774         0.532798
 O         3.419995        -0.834059         1.731701
 C         3.523392         0.399704         0.898065
 C         2.720990         1.572715         1.507656
 C         1.412234         1.328912         1.548679
 C         1.113197        -0.067264         0.939233
 C         0.203932         0.106914        -0.232150
 O         0.579955        -1.145888         1.755265
 H         1.730914        -2.476033         0.018603
 H         1.972990        -1.416612        -1.476569
 H         3.326126        -2.138495        -0.695099
 H         4.527221         0.564522         0.429936
 H         3.280241         2.379357         1.918361
 H         0.564597         1.998377         1.788413
 H         0.707776         0.064932        -1.208335
 H        -0.313053        -0.913046        -0.336420
 H        -0.480319         0.970651        -0.089194
 H         1.348432        -1.218404         2.262600
