19
Iteration:  3338
 C         2.774119        -1.559794        -0.713656
 C         2.567181        -0.701191         0.515222
 O         3.528603        -0.700543         1.623661
 C         3.435660         0.463805         0.796030
 C         2.711264         1.538029         1.393928
 C         1.433446         1.141519         1.469658
 C         1.035505        -0.193175         1.021767
 C        -0.067652        -0.158725        -0.100289
 O         0.497714        -0.896972         2.203174
 H         3.814570        -1.665414        -0.938815
 H         2.231507        -2.588195        -0.725992
 H         2.324986        -0.925182        -1.575993
 H         4.315765         0.654034         0.165010
 H         3.070171         2.607593         1.443237
 H         0.590021         1.761343         1.772566
 H         0.156810         0.519088        -0.897418
 H        -0.264504        -1.137185        -0.572246
 H        -1.025576         0.250008         0.330268
 H         1.257090        -1.149512         2.688663
