19
Iteration:  2025
 C         2.547369        -1.767766        -0.444190
 C         2.434877        -0.624799         0.605372
 O         3.527287        -0.691460         1.701738
 C         3.529278         0.385205         0.800710
 C         2.670277         1.561240         1.335875
 C         1.409870         1.181385         1.675056
 C         1.085603        -0.092641         1.019914
 C         0.297169         0.283912        -0.227069
 O         0.362615        -1.199689         1.778310
 H         1.881080        -2.626808        -0.100118
 H         2.445492        -1.511857        -1.544874
 H         3.513001        -2.183278        -0.341944
 H         4.548159         0.407271         0.355803
 H         2.962568         2.651121         1.395901
 H         0.762004         1.937581         2.087416
 H         1.013896         0.773747        -0.957087
 H        -0.273988        -0.634758        -0.562969
 H        -0.383580         1.041111         0.133906
 H         1.155687        -1.586178         2.163979
