19
Iteration:  4560
 C         2.641712        -1.637554        -0.546694
 C         2.462436        -0.593858         0.457880
 O         3.318159        -0.790751         1.625173
 C         3.421922         0.444468         0.759701
 C         2.705878         1.610678         1.395620
 C         1.431734         1.337171         1.405516
 C         1.060849        -0.084237         1.032194
 C        -0.054935        -0.221911        -0.069027
 O         0.817691        -0.986969         2.086931
 H         2.020189        -2.527794        -0.442898
 H         2.444921        -1.262506        -1.562321
 H         3.691349        -1.926674        -0.423175
 H         4.357294         0.543868         0.270956
 H         3.075074         2.564310         1.794459
 H         0.642121         2.051908         1.738326
 H         0.342143         0.369765        -0.858474
 H         0.090839        -1.213599        -0.444911
 H        -1.045297        -0.047782         0.377904
 H         1.734220        -1.228708         2.434637
