19
Iteration:   732
 C         2.627227        -1.613928        -0.531520
 C         2.671272        -0.701500         0.609264
 O         3.213205        -0.975139         1.855724
 C         3.600673         0.318184         1.013143
 C         2.800262         1.554831         1.184364
 C         1.475498         1.301189         1.481399
 C         1.126888        -0.014886         0.921234
 C         0.023561         0.068328        -0.210617
 O         0.461800        -0.932725         1.872265
 H         1.895889        -2.464931        -0.358257
 H         2.415116        -0.873870        -1.400499
 H         3.650323        -1.925506        -0.883269
 H         4.663592         0.461374         0.731695
 H         3.360089         2.457939         1.297169
 H         0.755122         1.959870         1.935569
 H         0.312875        -0.541471        -1.164666
 H        -1.014902        -0.352474         0.055835
 H        -0.145005         1.162537        -0.540205
 H         0.960544        -1.179563         2.576735
