19
Iteration:  3833
 C         2.646634        -1.764559        -0.479011
 C         2.530807        -0.546286         0.431637
 O         3.416853        -0.689789         1.554643
 C         3.445321         0.521341         0.794933
 C         2.638909         1.571956         1.439003
 C         1.360986         1.299523         1.609410
 C         1.133020        -0.091186         0.949031
 C         0.000742        -0.168429        -0.119574
 O         0.723344        -1.011335         1.943083
 H         2.137175        -2.759017        -0.235893
 H         2.186739        -1.749420        -1.429548
 H         3.665437        -2.086699        -0.502436
 H         4.342515         0.639624         0.268076
 H         3.124214         2.519008         1.790726
 H         0.722810         1.766997         2.376647
 H         0.066989         0.032478        -1.168191
 H        -0.500743        -1.185365         0.059755
 H        -0.900580         0.439792         0.264322
 H         1.404699        -1.124409         2.597035
