19
Iteration:  2913charge 0 multiplicity 1
 C         2.734529        -1.783621        -0.463055
 C         2.570319        -0.646447         0.483586
 O         3.577364        -0.727745         1.532675
 C         3.427891         0.561289         0.764134
 C         2.679790         1.566099         1.609880
 C         1.380552         1.261952         1.579042
 C         1.097984        -0.122534         0.915413
 C        -0.033181        -0.075433        -0.205678
 O         0.486615        -0.968934         1.931713
 H         2.129042        -1.609739        -1.387763
 H         3.689012        -2.185756        -0.772127
 H         2.231460        -2.569790         0.137735
 H         4.361340         0.818573         0.268798
 H         3.329479         2.240502         2.149333
 H         0.574855         1.449837         2.281253
 H         0.190369         0.670207        -1.042328
 H        -0.315067        -1.039243        -0.706091
 H        -0.986089         0.234628         0.272490
 H         1.045637        -0.859258         2.658496
