19
Iteration:  2630charge 0 multiplicity 1
 C         2.560320        -1.793785        -0.515283
 C         2.474253        -0.603204         0.451479
 O         3.514281        -0.779740         1.667955
 C         3.419210         0.441101         0.935029
 C         2.693369         1.546559         1.540749
 C         1.393310         1.262986         1.576695
 C         1.097317        -0.042171         0.900319
 C         0.184981         0.027985        -0.242395
 O         0.507190        -1.032207         1.867723
 H         2.980174        -1.525577        -1.593198
 H         3.318194        -2.323016         0.097882
 H         1.601867        -2.182898        -0.284773
 H         4.348050         0.583185         0.419206
 H         3.252846         2.443091         1.866922
 H         0.658410         2.029901         1.704033
 H         0.664436         0.902596        -0.809093
 H         0.229541        -0.922159        -0.801471
 H        -0.884909         0.121906        -0.059237
 H         1.174724        -1.078780         2.625602
