19
Iteration:   369
 C         2.496397        -1.745468        -0.413988
 C         2.508026        -0.712724         0.626858
 O         3.427699        -0.752205         1.733995
 C         3.509051         0.333431         0.740262
 C         2.682378         1.456282         1.223785
 C         1.449684         1.194998         1.635995
 C         1.042140        -0.085624         1.040041
 C         0.338637         0.264673        -0.262524
 O         0.435089        -1.004502         1.873452
 H         1.848069        -2.617709        -0.131312
 H         2.227559        -1.384769        -1.408310
 H         3.589918        -2.132263        -0.396134
 H         4.472705         0.489086         0.224972
 H         3.143917         2.433646         1.368356
 H         0.742684         1.875764         2.080551
 H         0.426252        -0.450895        -1.132541
 H        -0.728065         0.492421         0.045156
 H         0.808357         1.189357        -0.648664
 H         0.905195        -1.127652         2.693830
