19
Iteration:  4844charge 0 multiplicity 1
 C         2.703661        -1.651839        -0.707798
 C         2.481447        -0.661306         0.491448
 O         3.345135        -0.823204         1.674083
 C         3.411868         0.446330         0.848158
 C         2.712312         1.585515         1.528619
 C         1.404694         1.305680         1.333616
 C         1.091053        -0.128305         0.933813
 C         0.005703        -0.299098        -0.153645
 O         0.705228        -0.754592         2.172331
 H         3.467378        -2.373485        -0.318780
 H         1.797360        -2.305037        -0.929139
 H         3.019838        -1.041313        -1.553340
 H         4.369109         0.623527         0.312926
 H         3.281604         2.379441         1.915801
 H         0.683760         1.879773         1.920301
 H         0.205116         0.154392        -1.191680
 H        -0.329487        -1.314245        -0.523444
 H        -1.001602        -0.038329         0.311743
 H         1.534907        -0.743679         2.726387
