19
Iteration:  3734
 C         2.867808        -1.623749        -0.527534
 C         2.453013        -0.567340         0.456968
 O         3.453153        -0.711667         1.570936
 C         3.456686         0.486329         0.697648
 C         2.725260         1.571266         1.309195
 C         1.464233         1.194042         1.534652
 C         1.009752        -0.114623         1.042847
 C        -0.139449        -0.066877        -0.004631
 O         0.578863        -1.102620         2.062027
 H         2.536550        -2.680778        -0.118510
 H         2.482926        -1.547132        -1.553034
 H         3.966709        -1.802722        -0.672052
 H         4.256301         0.809661         0.047954
 H         3.192382         2.455140         1.631660
 H         0.722844         1.859235         2.003236
 H         0.028825         0.564385        -0.919336
 H        -0.330299        -1.136293        -0.302013
 H        -1.115714         0.321762         0.414585
 H         1.262125        -1.229476         2.727022
