19
Iteration:   110
 C         2.741265        -1.740119        -0.489483
 C         2.451363        -0.758400         0.590743
 O         3.614476        -0.780918         1.579996
 C         3.422271         0.381424         0.747559
 C         2.766890         1.516178         1.514604
 C         1.437636         1.200027         1.599810
 C         1.037098        -0.135366         1.004398
 C         0.193133         0.064648        -0.222099
 O         0.222153        -0.830072         1.930137
 H         2.421441        -2.759325        -0.259276
 H         2.304166        -1.419611        -1.401362
 H         3.846201        -1.794949        -0.669044
 H         4.202740         0.614536         0.049445
 H         3.295998         2.506901         1.532758
 H         0.701071         1.944224         1.973984
 H        -0.028936        -0.811843        -0.815115
 H        -0.721033         0.561178         0.066091
 H         0.810140         0.716083        -0.800539
 H         0.741917        -0.991975         2.715452
