19
Iteration:  3578charge 0 multiplicity 1
 C         2.631233        -1.759860        -0.647728
 C         2.438773        -0.559752         0.447024
 O         3.389429        -0.744135         1.628132
 C         3.462136         0.530054         0.782805
 C         2.686905         1.632614         1.492227
 C         1.393151         1.247949         1.522444
 C         1.142347        -0.109205         0.963666
 C         0.043531        -0.101636        -0.129216
 O         0.673085        -1.030055         2.064846
 H         2.851991        -1.497095        -1.630715
 H         3.428409        -2.229324        -0.089951
 H         1.723669        -2.397873        -0.586520
 H         4.409430         0.649393         0.242069
 H         3.210149         2.493323         1.876852
 H         0.586462         1.807092         2.024107
 H         0.286776         0.623848        -0.939285
 H        -0.084751        -1.071161        -0.617006
 H        -0.875286         0.103657         0.398915
 H         1.449128        -1.517853         2.556912
