19
Iteration:  4912
 C         2.556560        -1.760894        -0.452151
 C         2.512042        -0.665451         0.582487
 O         3.386683        -0.562730         1.763537
 C         3.437976         0.447720         0.635154
 C         2.675372         1.540613         1.228480
 C         1.442899         1.208619         1.560900
 C         1.183173        -0.141559         1.027976
 C         0.087565         0.061856        -0.111067
 O         0.611449        -1.117142         1.868455
 H         3.621656        -1.899787        -0.728503
 H         2.347035        -2.676633         0.009965
 H         1.974274        -1.528744        -1.340222
 H         4.339481         0.519507         0.070101
 H         3.127133         2.533183         1.494423
 H         0.803396         1.631562         2.360525
 H         0.551743         0.642882        -0.920550
 H        -0.136173        -0.956405        -0.519798
 H        -0.769458         0.478081         0.505879
 H         0.986895        -1.021533         2.788319
