19
Iteration:  2186
 C         3.024862        -1.552813        -0.640931
 C         2.481551        -0.649638         0.469142
 O         3.394424        -0.970061         1.650247
 C         3.523461         0.291586         0.985200
 C         2.758559         1.492277         1.557543
 C         1.420028         1.349272         1.358565
 C         1.025850        -0.111265         0.884900
 C        -0.132585        -0.049168        -0.083865
 O         0.402275        -0.820841         2.034603
 H         2.142984        -2.181731        -0.907484
 H         3.237922        -0.876716        -1.484631
 H         3.864444        -2.135852        -0.396680
 H         4.463148         0.477389         0.406773
 H         3.269840         2.384098         1.927769
 H         0.595207         2.084456         1.365350
 H         0.256029         0.409595        -1.000306
 H        -0.537594        -1.047293        -0.345163
 H        -0.972357         0.578856         0.091414
 H         1.267421        -1.153778         2.523693
