19
Iteration:  3194
 C         2.536649        -1.631206        -0.579698
 C         2.524319        -0.661066         0.596154
 O         3.548022        -0.711255         1.656088
 C         3.373319         0.504070         0.676346
 C         2.666917         1.581480         1.398109
 C         1.365606         1.181179         1.576842
 C         1.138658        -0.139256         1.025729
 C         0.168128        -0.156504        -0.173040
 O         0.543672        -0.951102         1.997261
 H         3.327472        -1.152668        -1.271981
 H         2.887564        -2.677172        -0.484350
 H         1.581601        -1.790262        -1.063416
 H         4.172454         0.729813        -0.066094
 H         3.097413         2.473395         1.857055
 H         0.628085         1.658311         2.299921
 H         0.483522         0.589709        -0.888052
 H         0.237384        -1.191726        -0.394157
 H        -0.819216         0.032791         0.186346
 H         1.218223        -1.082666         2.626006
