19
Iteration:  3113
 C         2.696685        -1.656936        -0.594792
 C         2.536413        -0.631600         0.611314
 O         3.331192        -0.568916         1.778058
 C         3.582256         0.408761         0.729471
 C         2.778954         1.631042         1.280008
 C         1.483493         1.223091         1.556313
 C         1.060960        -0.207058         1.003919
 C        -0.057733         0.034419        -0.046922
 O         0.538062        -1.217545         1.894771
 H         2.476456        -1.284751        -1.609889
 H         3.708516        -2.126158        -0.617081
 H         1.947551        -2.500171        -0.507569
 H         4.600786         0.542076         0.462280
 H         2.959552         2.683854         1.445773
 H         0.691789         1.906589         1.908850
 H         0.390967         0.542095        -0.935893
 H        -0.490569        -0.918682        -0.483372
 H        -0.958181         0.630333         0.308832
 H         1.355106        -1.381644         2.295271
