19
Iteration:  1308charge 0 multiplicity 1
 C         2.521786        -1.596945        -0.664069
 C         2.524791        -0.650148         0.549259
 O         3.277597        -0.877603         1.798887
 C         3.528154         0.322093         1.040863
 C         2.753333         1.550784         1.536936
 C         1.505968         1.296077         1.432664
 C         1.188323        -0.023380         0.869746
 C         0.117728        -0.069173        -0.224341
 O         0.545252        -0.920795         1.906658
 H         1.872021        -2.465034        -0.588990
 H         2.131347        -1.016892        -1.488778
 H         3.527811        -1.926961        -0.981010
 H         4.567181         0.491336         0.669166
 H         3.169241         2.521883         1.755783
 H         0.684089         2.079326         1.416164
 H         0.129818         0.762136        -0.958453
 H         0.107183        -1.066803        -0.662404
 H        -0.892904        -0.031831         0.309510
 H         1.419099        -1.392895         2.256090
