19
Iteration:   303charge 0 multiplicity 1
 C         2.686434        -1.864840        -0.421628
 C         2.464099        -0.636695         0.464836
 O         3.331048        -0.891037         1.694902
 C         3.503687         0.341360         0.878635
 C         2.803358         1.497509         1.499173
 C         1.470358         1.266256         1.466255
 C         1.062952        -0.055845         0.862986
 C        -0.042805         0.242676        -0.218549
 O         0.601966        -0.884532         1.904526
 H         2.542285        -2.758973         0.247229
 H         1.977427        -1.964208        -1.256392
 H         3.774583        -1.862414        -0.752561
 H         4.441828         0.432995         0.369565
 H         3.219175         2.307296         2.100120
 H         0.739406         1.861318         1.986049
 H        -0.567733        -0.701004        -0.567576
 H        -0.769633         1.033694         0.117357
 H         0.531669         0.540641        -1.148459
 H         1.365080        -0.834084         2.427593
