19
Iteration:  3438
 C         2.498604        -1.688279        -0.493614
 C         2.506506        -0.544849         0.484414
 O         3.554222        -0.755243         1.564345
 C         3.445934         0.518031         0.880692
 C         2.670080         1.659256         1.387269
 C         1.411528         1.260773         1.603089
 C         1.106959        -0.191121         1.036813
 C         0.102974        -0.099969        -0.213038
 O         0.608229        -1.110602         1.970823
 H         1.714207        -1.636582        -1.245552
 H         3.471568        -1.900966        -0.932832
 H         2.262886        -2.696112         0.022893
 H         4.294166         0.724461         0.270621
 H         3.002454         2.669865         1.448677
 H         0.598736         1.808664         2.116804
 H         0.528237         0.637072        -0.961940
 H        -0.015443        -0.984365        -0.839711
 H        -0.863273         0.284852         0.087222
 H         1.067331        -0.889328         2.742701
