19
Iteration:   984charge 0 multiplicity 1
 C         2.738993        -1.528796        -0.484486
 C         2.411435        -0.642473         0.658043
 O         3.413996        -0.880312         1.626544
 C         3.488810         0.374636         0.836122
 C         2.754891         1.521229         1.373847
 C         1.478768         1.135740         1.629752
 C         1.061069        -0.107526         0.970196
 C         0.176684         0.054624        -0.333271
 O         0.354014        -0.943417         1.967572
 H         2.183714        -2.494048        -0.459007
 H         2.579309        -1.067949        -1.451445
 H         3.903706        -1.706160        -0.555229
 H         4.308616         0.532746         0.171912
 H         3.300885         2.445732         1.612453
 H         0.806019         1.791194         2.137502
 H         0.918169        -0.017748        -1.246844
 H        -0.839917        -0.461187        -0.147537
 H        -0.241377         1.097442        -0.242725
 H         1.016970        -1.502987         2.376177
