19
Iteration:  1558
 C         2.699697        -1.398179        -0.733028
 C         2.473024        -0.713969         0.549612
 O         3.304517        -1.000826         1.796577
 C         3.504775         0.234528         0.959103
 C         2.789105         1.468802         1.523553
 C         1.428706         1.283794         1.331705
 C         1.112358        -0.177403         0.957851
 C         0.240532        -0.093692        -0.336295
 O         0.389805        -0.682633         2.133087
 H         2.038830        -2.314993        -0.660333
 H         2.161338        -0.700916        -1.486216
 H         3.713719        -1.616881        -1.028087
 H         4.553078         0.289031         0.539881
 H         3.329984         2.326350         1.912169
 H         0.584770         1.862044         1.622232
 H         0.657603         0.643980        -1.084693
 H        -0.016957        -1.087782        -0.775895
 H        -0.744766         0.284268        -0.040328
 H         1.189135        -0.869093         2.609289
