19
Iteration:   190
 C         2.850348        -1.721852        -0.589698
 C         2.522895        -0.669884         0.449219
 O         3.138065        -1.037758         1.675829
 C         3.431531         0.419074         0.935917
 C         2.734646         1.515873         1.478075
 C         1.411923         1.303247         1.398313
 C         1.071509        -0.091372         0.847486
 C        -0.067635         0.069781        -0.156959
 O         0.762283        -0.752479         2.070817
 H         2.047994        -2.497717        -0.717285
 H         3.051906        -1.452324        -1.703331
 H         3.726716        -2.240444        -0.212350
 H         4.553244         0.412700         0.781675
 H         3.188613         2.377531         1.912997
 H         0.665339         1.957411         1.760626
 H        -0.418160        -0.903532        -0.554752
 H        -1.002376         0.454399         0.321552
 H         0.232773         0.848103        -0.923364
 H         1.641550        -1.078494         2.538359
