19
Iteration:  3509charge 0 multiplicity 1
 C         2.829740        -1.678804        -0.579366
 C         2.611625        -0.606757         0.447141
 O         3.515705        -0.742904         1.628403
 C         3.479150         0.502258         0.711289
 C         2.695410         1.548782         1.369250
 C         1.397875         1.223187         1.593336
 C         1.002657        -0.177152         1.025861
 C        -0.020630         0.013554        -0.053830
 O         0.391561        -1.058433         2.016970
 H         1.913559        -2.082369        -1.109594
 H         3.726035        -1.493921        -1.275188
 H         3.149281        -2.545256        -0.004670
 H         4.371421         0.773020         0.125106
 H         3.204710         2.547224         1.489650
 H         0.676906         1.898987         2.074109
 H         0.462426         0.270024        -0.970827
 H        -0.577327        -0.909344        -0.315690
 H        -0.770536         0.819764         0.250201
 H         0.937388        -1.226694         2.745330
