19
Iteration:  4582
 C         2.574693        -1.711463        -0.574193
 C         2.539891        -0.599657         0.475433
 O         3.444307        -0.750525         1.611125
 C         3.455582         0.479838         0.822957
 C         2.684081         1.616518         1.362520
 C         1.407090         1.363917         1.509614
 C         1.122207        -0.136145         0.969876
 C         0.015505        -0.201680        -0.100928
 O         0.652792        -0.987047         2.063148
 H         2.420559        -2.715674        -0.168357
 H         1.734111        -1.716216        -1.285026
 H         3.515383        -1.804914        -1.119915
 H         4.317296         0.724424         0.273372
 H         3.171891         2.574382         1.591342
 H         0.514637         1.818084         1.956784
 H         0.134280         0.640808        -0.850733
 H         0.129420        -1.131856        -0.633762
 H        -0.862463        -0.199602         0.604310
 H         1.350277        -0.986435         2.758453
