19
Iteration:  2695
 C         2.808048        -1.527737        -0.665095
 C         2.504489        -0.628879         0.546479
 O         3.279510        -0.836140         1.746494
 C         3.490889         0.347164         0.929903
 C         2.792819         1.571236         1.392042
 C         1.479590         1.346300         1.489880
 C         1.042363        -0.132935         0.963111
 C         0.021691        -0.131635        -0.169712
 O         0.469090        -0.988702         1.976775
 H         3.882723        -1.396258        -1.185961
 H         2.736065        -2.627874        -0.514207
 H         2.141201        -1.397816        -1.527210
 H         4.516373         0.404688         0.612518
 H         3.263714         2.534654         1.639814
 H         0.727120         2.009420         1.962875
 H         0.673729         0.143603        -1.043335
 H        -0.613636        -1.054813        -0.234763
 H        -0.596132         0.764134        -0.191210
 H         1.164614        -1.175002         2.576046
