19
Iteration:  3200charge 0 multiplicity 1
 C         2.607745        -1.560611        -0.562430
 C         2.578721        -0.681325         0.592788
 O         3.466420        -0.724704         1.590267
 C         3.419623         0.525485         0.693880
 C         2.657570         1.575292         1.367833
 C         1.395961         1.177818         1.616225
 C         1.108190        -0.170723         1.030979
 C         0.135684        -0.158865        -0.157424
 O         0.512079        -0.973670         2.007091
 H         3.368851        -1.200641        -1.229612
 H         2.916498        -2.593452        -0.368876
 H         1.661762        -1.677244        -1.083629
 H         4.254842         0.595118         0.030400
 H         3.169017         2.539603         1.569903
 H         0.736210         1.833220         2.117543
 H         0.539026         0.493709        -0.992732
 H         0.117830        -1.285039        -0.267292
 H        -0.814892         0.140495         0.374690
 H         1.114251        -1.022630         2.807864
