19
Iteration:  4239charge 0 multiplicity 1
 C         2.752851        -1.588861        -0.648861
 C         2.549339        -0.659548         0.523190
 O         3.403399        -0.795734         1.658362
 C         3.451281         0.417254         0.848835
 C         2.590709         1.640297         1.210381
 C         1.277864         1.281384         1.483086
 C         1.141774        -0.157062         0.997081
 C        -0.109729        -0.176422         0.021463
 O         0.780883        -0.952506         2.054871
 H         2.328844        -1.053442        -1.586523
 H         3.894502        -1.844301        -0.820650
 H         2.211551        -2.600224        -0.381558
 H         4.386550         0.468514         0.358384
 H         2.962496         2.680266         1.429412
 H         0.441619         1.865670         1.927269
 H         0.133347         0.590373        -0.796720
 H        -0.184971        -1.137284        -0.550263
 H        -0.979764        -0.007831         0.677190
 H         1.574705        -0.942522         2.610198
