19
Iteration:  1319
 C         2.449046        -1.608325        -0.648549
 C         2.521622        -0.607433         0.508897
 O         3.222082        -0.861390         1.852081
 C         3.542037         0.377782         1.048615
 C         2.857906         1.567729         1.561374
 C         1.449689         1.345133         1.417727
 C         1.137752        -0.095794         0.858051
 C         0.079703        -0.105753        -0.280009
 O         0.690985        -0.944955         1.857591
 H         1.766677        -2.384185        -0.304495
 H         2.050106        -1.090592        -1.514206
 H         3.419226        -2.043652        -0.900160
 H         4.579288         0.281270         0.636607
 H         3.375787         2.317980         2.166070
 H         0.578045         2.080315         1.691360
 H         0.184163         0.729293        -1.020788
 H         0.066510        -1.003366        -0.911907
 H        -0.893268         0.036240         0.292074
 H         1.375637        -1.367576         2.420137
