19
Iteration:  3604charge 0 multiplicity 1
 C         2.861529        -1.642466        -0.615226
 C         2.477279        -0.699120         0.560346
 O         3.512386        -0.777349         1.534490
 C         3.495979         0.458316         0.799872
 C         2.659528         1.516486         1.367633
 C         1.361184         1.264911         1.538186
 C         1.060758        -0.126533         0.967140
 C        -0.140261        -0.072333        -0.005668
 O         0.576150        -0.957415         2.015802
 H         3.676872        -1.063605        -1.278882
 H         3.297730        -2.530706        -0.139286
 H         1.964062        -1.840646        -1.211339
 H         4.335027         0.699072         0.109198
 H         3.234527         2.418494         1.655387
 H         0.682582         1.976345         1.979060
 H         0.123836         0.571430        -0.866365
 H        -0.417516        -1.038977        -0.476149
 H        -1.012310         0.186843         0.613507
 H         0.951237        -0.884413         2.957617
