19
Iteration:  2950charge 0 multiplicity 1
 C         2.710246        -1.593786        -0.630715
 C         2.510455        -0.662004         0.560174
 O         3.356114        -0.788004         1.672416
 C         3.404502         0.422293         0.805326
 C         2.701393         1.666072         1.325344
 C         1.419703         1.333073         1.569182
 C         1.086130        -0.174130         1.018251
 C         0.130848        -0.100366        -0.187527
 O         0.553818        -1.052333         2.031212
 H         2.598455        -1.070722        -1.576072
 H         3.725675        -2.111418        -0.492543
 H         1.832292        -2.314518        -0.684090
 H         4.444703         0.563101         0.427788
 H         3.211607         2.623621         1.523350
 H         0.681431         1.869551         2.204375
 H         0.271233         0.817227        -0.717132
 H         0.328582        -1.007911        -0.770840
 H        -0.911766        -0.177750         0.190068
 H         1.257202        -1.308131         2.618077
