19
Iteration:  4334charge 0 multiplicity 1
 C         2.532469        -1.702384        -0.554928
 C         2.491344        -0.643654         0.530367
 O         3.582892        -0.636971         1.496419
 C         3.387149         0.517996         0.678648
 C         2.613689         1.599073         1.476547
 C         1.338358         1.278654         1.484563
 C         1.163228        -0.151364         1.100635
 C         0.180443        -0.143973        -0.150266
 O         0.567352        -1.038524         2.144425
 H         1.660792        -1.728434        -1.209239
 H         3.415778        -1.760039        -1.163032
 H         2.656970        -2.639892        -0.097660
 H         4.112875         0.818412        -0.063507
 H         3.037728         2.594639         1.616937
 H         0.404797         1.732595         1.750293
 H         0.883284         0.347142        -0.809507
 H         0.100255        -1.218820        -0.318673
 H        -0.870270         0.134641         0.001390
 H         1.280276        -1.383612         2.755079
