19
Iteration:  4522
 C         2.760741        -1.649059        -0.795480
 C         2.468125        -0.677025         0.457979
 O         3.436993        -0.762735         1.659446
 C         3.465428         0.481139         0.859101
 C         2.685527         1.634956         1.357609
 C         1.394550         1.189863         1.430261
 C         1.123326        -0.177462         0.963964
 C        -0.103880        -0.205251         0.094189
 O         0.663968        -0.846324         2.136387
 H         1.781817        -1.800432        -1.307550
 H         3.470657        -1.125385        -1.433719
 H         3.226640        -2.613797        -0.505834
 H         4.440431         0.672096         0.302968
 H         3.119158         2.614678         1.569460
 H         0.520513         1.745388         1.660512
 H         0.116242        -0.066195        -1.065140
 H        -0.543565        -1.269020         0.124833
 H        -1.081802         0.339797         0.221551
 H         1.376346        -0.782028         2.793500
