19
Iteration:  3785
 C         2.552889        -1.610396        -0.579963
 C         2.571430        -0.639665         0.509269
 O         3.541497        -0.709313         1.635725
 C         3.468984         0.482802         0.723493
 C         2.563940         1.646433         1.258343
 C         1.330333         1.192769         1.635157
 C         1.100122        -0.203251         1.014581
 C         0.113374        -0.148306        -0.114373
 O         0.616520        -1.005784         2.096409
 H         1.668945        -2.134671        -0.730355
 H         2.687063        -1.205287        -1.587918
 H         3.244968        -2.454005        -0.393135
 H         4.427142         0.780422         0.174299
 H         2.933162         2.644578         1.404087
 H         0.523669         1.711130         2.144575
 H         0.608720         0.663758        -0.724553
 H        -0.080534        -1.013513        -0.700712
 H        -0.840078         0.187469         0.201450
 H         1.452870        -1.249953         2.643979
