19
Iteration:  3102
 C         2.653585        -1.568726        -0.513248
 C         2.538104        -0.647386         0.560519
 O         3.340500        -0.701872         1.747223
 C         3.558887         0.481610         0.828110
 C         2.712665         1.615363         1.215584
 C         1.465670         1.253843         1.487190
 C         1.107035        -0.228415         1.003335
 C         0.013146        -0.007863        -0.082082
 O         0.549402        -1.179279         1.926927
 H         2.260268        -0.922641        -1.289596
 H         3.720909        -1.789382        -0.763267
 H         2.057894        -2.508786        -0.375165
 H         4.456624         0.467401         0.247531
 H         3.191063         2.571113         1.366081
 H         0.736300         1.959473         1.921763
 H         0.380795         0.680913        -0.873267
 H        -0.449030        -0.939798        -0.500001
 H        -0.762228         0.589481         0.482077
 H         1.142192        -1.663560         2.505590
