19
Iteration:   396charge 0 multiplicity 1
 C         2.399107        -1.803948        -0.516167
 C         2.531774        -0.747717         0.580550
 O         3.437258        -0.844919         1.621693
 C         3.397063         0.449603         0.831934
 C         2.722414         1.670319         1.472130
 C         1.436208         1.377320         1.551301
 C         1.099345        -0.118975         1.018897
 C         0.430882         0.060519        -0.340821
 O         0.439794        -1.001337         1.993160
 H         1.474211        -2.321200        -0.352996
 H         2.507941        -1.489966        -1.562916
 H         3.126017        -2.480280        -0.259811
 H         4.324988         0.671183         0.331890
 H         3.278403         2.549475         1.736689
 H         0.636386         1.981200         1.991950
 H         0.040106        -0.789816        -0.847094
 H        -0.351615         0.734733        -0.149770
 H         1.170305         0.545286        -0.967391
 H         1.116896        -1.375593         2.569695
