19
Iteration:  2940
 C         2.699386        -1.623430        -0.564754
 C         2.439965        -0.587309         0.471119
 O         3.388383        -0.731101         1.601046
 C         3.519216         0.432402         0.806976
 C         2.717035         1.580161         1.449876
 C         1.386680         1.243871         1.534506
 C         1.110520        -0.091057         1.045357
 C         0.135787        -0.101323        -0.142762
 O         0.493225        -1.049281         2.018065
 H         2.691440        -1.240798        -1.596214
 H         3.721676        -2.111999        -0.452699
 H         2.059447        -2.532112        -0.435174
 H         4.390608         0.545541         0.104551
 H         3.157042         2.577133         1.472718
 H         0.486688         1.711340         2.004690
 H         0.221935         0.712427        -0.824002
 H         0.374452        -0.960098        -0.777373
 H        -0.896394        -0.184483         0.222861
 H         1.142190        -1.134742         2.673542
