19
Iteration:  1276
 C         2.895032        -1.546600        -0.637297
 C         2.474481        -0.688131         0.546571
 O         3.357366        -0.972249         1.652838
 C         3.467348         0.323548         0.868027
 C         2.802987         1.554274         1.408055
 C         1.460381         1.225358         1.535105
 C         1.047999        -0.109506         0.974127
 C         0.064518         0.027921        -0.243429
 O         0.344315        -0.875839         2.066349
 H         2.515456        -2.550410        -0.655012
 H         2.760253        -1.087352        -1.602431
 H         3.977185        -1.675415        -0.500355
 H         4.385413         0.463300         0.250593
 H         3.166167         2.389465         1.979546
 H         0.716518         2.026408         1.868348
 H         0.596389         0.524945        -1.085741
 H        -0.339330        -0.907727        -0.601360
 H        -0.765526         0.653899         0.105262
 H         0.759844        -0.588336         2.822922
