19
Iteration:  3210charge 0 multiplicity 1
 C         2.728802        -1.558376        -0.607620
 C         2.495527        -0.618113         0.529900
 O         3.448718        -0.738464         1.575156
 C         3.470734         0.488914         0.741107
 C         2.691606         1.603526         1.316961
 C         1.438123         1.223835         1.632747
 C         1.115521        -0.190770         1.047510
 C         0.095612        -0.182290        -0.073982
 O         0.464431        -1.037490         2.045177
 H         3.473419        -1.286579        -1.303414
 H         2.922578        -2.544657        -0.133890
 H         1.789081        -1.544900        -1.186789
 H         4.413708         0.618073         0.233721
 H         3.050866         2.640140         1.424801
 H         0.654449         1.844779         1.988947
 H         0.409297         0.276472        -1.042346
 H        -0.313478        -1.153266        -0.470241
 H        -0.844622         0.407042         0.171957
 H         0.967355        -0.913353         2.853956
