19
Iteration:  3425charge 0 multiplicity 1
 C         2.403125        -1.712723        -0.504323
 C         2.561224        -0.589888         0.494037
 O         3.488313        -0.722372         1.663466
 C         3.488756         0.530138         0.778257
 C         2.611190         1.645143         1.433418
 C         1.352970         1.198288         1.599274
 C         1.191725        -0.121819         0.944724
 C         0.137400        -0.096895        -0.166224
 O         0.692828        -1.097118         1.895885
 H         1.988783        -1.390825        -1.372157
 H         3.371078        -2.149992        -0.785479
 H         1.732619        -2.380756         0.082980
 H         4.408935         0.766937         0.263487
 H         3.036565         2.647409         1.723857
 H         0.503899         1.860650         1.822158
 H         0.353012         0.580144        -0.951227
 H        -0.218768        -1.099042        -0.388900
 H        -0.716946         0.280374         0.426657
 H         1.259675        -1.099146         2.772229
