19
Iteration:   136
 C         2.532820        -1.597349        -0.610071
 C         2.630170        -0.688698         0.562791
 O         3.452079        -0.801109         1.783408
 C         3.629806         0.398209         0.862199
 C         2.782877         1.602641         1.423870
 C         1.456674         1.216906         1.540373
 C         1.161605        -0.121919         0.911618
 C         0.113495        -0.128696        -0.217511
 O         0.289520        -0.870134         1.904566
 H         1.932903        -2.504306        -0.299040
 H         1.676181        -1.187837        -1.249133
 H         3.372958        -1.922731        -1.238714
 H         4.621339         0.382383         0.285782
 H         3.256949         2.466493         1.928315
 H         0.789300         1.782659         2.183592
 H        -0.146622        -1.179740        -0.480017
 H        -0.757699         0.477777         0.145996
 H         0.569477         0.298839        -1.164385
 H         0.695496        -0.911524         2.701367
