19
Iteration:  3281charge 0 multiplicity 1
 C         2.671376        -1.701390        -0.678934
 C         2.521457        -0.547877         0.335569
 O         3.297590        -0.714181         1.613493
 C         3.518052         0.463772         0.865994
 C         2.689592         1.608863         1.466649
 C         1.347652         1.319052         1.508924
 C         1.078431        -0.100700         0.973604
 C        -0.081773        -0.252333        -0.052030
 O         0.797384        -1.018421         2.088118
 H         3.519964        -2.369430        -0.404164
 H         1.744822        -2.266748        -0.774178
 H         2.921766        -1.220287        -1.617814
 H         4.575138         0.589663         0.502249
 H         3.243732         2.431071         1.864461
 H         0.559028         1.969175         1.959685
 H         0.375695         0.022378        -1.005415
 H        -0.522826        -1.248784        -0.150974
 H        -0.908359         0.467658         0.123991
 H         1.596780        -0.989128         2.736890
