19
Iteration:   930charge 0 multiplicity 1
 C         2.581028        -1.745794        -0.405829
 C         2.522389        -0.588943         0.438295
 O         3.421605        -0.823966         1.640772
 C         3.559958         0.362248         0.884416
 C         2.731920         1.535470         1.561200
 C         1.420976         1.220802         1.557461
 C         1.104410        -0.064514         0.904179
 C         0.096473         0.128498        -0.234247
 O         0.514649        -1.004459         1.793770
 H         1.896861        -2.497607         0.066574
 H         2.148984        -1.643707        -1.382359
 H         3.592678        -2.296404        -0.410331
 H         4.545080         0.494618         0.468216
 H         3.199697         2.348800         2.088560
 H         0.683582         1.721983         2.124212
 H         0.295629         1.217323        -0.634161
 H         0.250229        -0.563209        -1.142590
 H        -0.944158         0.196532         0.178965
 H         0.711018        -0.767395         2.712515
