19
Iteration:  1745
 C         2.580705        -1.844597        -0.349972
 C         2.506882        -0.655612         0.529371
 O         3.496758        -0.774058         1.611011
 C         3.493715         0.425511         0.796394
 C         2.708551         1.498696         1.526448
 C         1.362569         1.279133         1.736238
 C         1.083695        -0.166373         0.928053
 C         0.253964         0.302329        -0.369108
 O         0.442184        -1.081915         1.784923
 H         2.111103        -2.564554         0.350499
 H         2.121416        -2.048286        -1.325365
 H         3.597788        -2.063349        -0.480319
 H         4.416965         0.724747         0.325076
 H         3.187972         2.399323         1.812124
 H         0.540995         1.863084         2.180790
 H         0.866094         0.654618        -1.175441
 H        -0.437758        -0.493054        -0.674975
 H        -0.387243         1.119563        -0.087822
 H         0.642197        -0.840452         2.662219
