19
Iteration:  2902
 C         2.660507        -1.893008        -0.477703
 C         2.628501        -0.624681         0.526889
 O         3.598178        -0.697674         1.571309
 C         3.470257         0.549899         0.788856
 C         2.654143         1.556187         1.595035
 C         1.316500         1.211572         1.625595
 C         1.097297        -0.052889         0.855299
 C        -0.037912        -0.010191        -0.244182
 O         0.531312        -0.976564         1.920502
 H         1.853971        -1.687280        -1.231058
 H         3.644893        -1.798395        -0.896520
 H         2.446888        -2.892456        -0.022906
 H         4.164163         0.689650        -0.013178
 H         2.974875         2.430029         2.146918
 H         0.669253         1.477163         2.462798
 H         0.249433         0.451383        -1.268596
 H        -0.336558        -1.082709        -0.316444
 H        -0.881071         0.604337         0.150852
 H         1.241647        -1.107020         2.573907
