19
Iteration:  2797charge 0 multiplicity 1
 C         2.762715        -1.725103        -0.566729
 C         2.521564        -0.573460         0.511122
 O         3.454538        -0.839284         1.616377
 C         3.451691         0.432189         0.866952
 C         2.748191         1.553046         1.588466
 C         1.399348         1.364684         1.543561
 C         1.031559        -0.110194         0.910616
 C         0.010824        -0.084209        -0.235037
 O         0.501314        -0.939147         1.955100
 H         2.494680        -2.633295        -0.072868
 H         2.149903        -1.758228        -1.514296
 H         3.869643        -1.865494        -0.815671
 H         4.328115         0.518880         0.178073
 H         3.238753         2.491607         1.844365
 H         0.683799         1.985449         2.039429
 H         0.082024         0.809099        -0.848624
 H         0.042745        -1.040489        -0.752204
 H        -0.958822        -0.159928         0.329573
 H         1.225146        -1.039706         2.539230
