19
Iteration:  3178charge 0 multiplicity 1
 C         2.554717        -1.755910        -0.604665
 C         2.474605        -0.666790         0.474094
 O         3.619062        -0.604034         1.604811
 C         3.403072         0.469372         0.789366
 C         2.661600         1.598962         1.501445
 C         1.338339         1.283094         1.593735
 C         1.067370        -0.181459         0.973223
 C         0.137346        -0.120147        -0.243498
 O         0.580808        -0.993247         2.071216
 H         3.125795        -1.574707        -1.504861
 H         2.948983        -2.585349        -0.005950
 H         1.524211        -2.080452        -0.879176
 H         4.276605         0.584169         0.168272
 H         3.277490         2.352623         2.003525
 H         0.602265         1.825979         2.150310
 H         0.530062         0.752548        -0.864536
 H        -0.082672        -0.961498        -0.970223
 H        -0.830790         0.246145         0.247574
 H         1.352543        -1.388329         2.534176
