19
Iteration:  3848
 C         2.745586        -1.729589        -0.516117
 C         2.498266        -0.573294         0.426876
 O         3.340505        -0.691295         1.615757
 C         3.490253         0.520107         0.762893
 C         2.688790         1.656256         1.360512
 C         1.458390         1.127747         1.578167
 C         1.080008        -0.136955         0.900049
 C        -0.091270        -0.131271        -0.062315
 O         0.651356        -1.002169         2.035485
 H         2.581525        -2.536114         0.135796
 H         2.057044        -1.532930        -1.419214
 H         3.801082        -1.734039        -0.901283
 H         4.555231         0.658114         0.366742
 H         3.109349         2.503197         1.877413
 H         0.619458         1.537725         2.117549
 H         0.341084         0.190148        -1.058225
 H        -0.496807        -1.143306        -0.187419
 H        -0.872538         0.551899         0.183359
 H         1.554726        -1.058490         2.558611
