19
Iteration:   252charge 0 multiplicity 1
 C         2.540563        -1.483053        -0.618241
 C         2.443617        -0.653649         0.614096
 O         3.322904        -0.996316         1.679443
 C         3.528205         0.271741         0.982300
 C         2.868540         1.556742         1.347649
 C         1.540927         1.394873         1.443802
 C         1.093647        -0.051890         1.003100
 C         0.146410        -0.209189        -0.257071
 O         0.431969        -0.803609         2.026909
 H         1.808040        -2.246542        -0.652221
 H         2.469850        -0.865421        -1.480693
 H         3.571390        -1.887040        -0.559653
 H         4.521391         0.307255         0.466108
 H         3.371200         2.487426         1.482847
 H         0.773452         2.060265         1.780508
 H         0.152950        -1.207949        -0.634878
 H        -0.817912         0.097092         0.106546
 H         0.431098         0.315351        -1.131489
 H         1.252336        -1.037444         2.640132
