19
Iteration:  1507charge 0 multiplicity 1
 C         2.715072        -1.699883        -0.540013
 C         2.497264        -0.602999         0.486703
 O         3.180876        -0.910465         1.708084
 C         3.585333         0.370262         1.015813
 C         2.829433         1.554052         1.456412
 C         1.536976         1.316667         1.465320
 C         1.091099        -0.092430         0.907466
 C         0.023903         0.101324        -0.120781
 O         0.481673        -1.005943         1.794559
 H         2.031420        -2.506703        -0.375336
 H         2.777142        -1.359698        -1.571513
 H         3.646999        -2.142619        -0.245822
 H         4.546227         0.449797         0.502155
 H         3.436433         2.428750         1.781783
 H         0.809608         2.061549         1.852431
 H         0.471978         0.616614        -0.938613
 H        -0.234952        -0.891137        -0.543747
 H        -0.870423         0.522046         0.254927
 H         0.988640        -0.753460         2.684109
