19
Iteration:  4158charge 0 multiplicity 1
 C         2.773997        -1.701801        -0.577520
 C         2.521404        -0.634826         0.486203
 O         3.468631        -0.638331         1.574237
 C         3.383951         0.560935         0.710840
 C         2.700693         1.587267         1.406622
 C         1.382533         1.201344         1.471704
 C         1.049054        -0.230180         1.015968
 C        -0.062114        -0.128648        -0.050379
 O         0.655058        -1.045375         2.132334
 H         2.235704        -1.426413        -1.596132
 H         3.764358        -1.881019        -0.965344
 H         2.291298        -2.641321        -0.421235
 H         4.360405         0.771041         0.163506
 H         3.038261         2.576192         1.653561
 H         0.531508         1.714855         1.974016
 H         0.503090         0.154990        -0.957276
 H        -0.696622        -1.063326        -0.211716
 H        -0.698591         0.797700         0.163710
 H         1.264137        -0.781083         2.832612
