19
Iteration:  4248charge 0 multiplicity 1
 C         2.817546        -1.605019        -0.663793
 C         2.523583        -0.651040         0.521348
 O         3.346209        -0.827843         1.653231
 C         3.485362         0.480358         0.824253
 C         2.570179         1.653848         1.223733
 C         1.354925         1.278428         1.472881
 C         1.106732        -0.129642         0.957067
 C        -0.090830        -0.154559         0.011420
 O         0.766822        -1.019085         2.117299
 H         2.146251        -1.359791        -1.563318
 H         3.966727        -1.670751        -0.720206
 H         2.435746        -2.621585        -0.339918
 H         4.503943         0.699494         0.501933
 H         3.052829         2.664457         1.281646
 H         0.486295         1.905136         1.709344
 H        -0.179082         0.700400        -0.731432
 H        -0.487669        -1.150131        -0.317998
 H        -0.991618         0.193246         0.617345
 H         1.615070        -1.149046         2.571653
