19
Iteration:   262
 C         2.467431        -1.509231        -0.672631
 C         2.475490        -0.650258         0.553168
 O         3.289273        -0.970878         1.749193
 C         3.541249         0.299157         0.967918
 C         2.819325         1.566263         1.344838
 C         1.471230         1.326126         1.444444
 C         1.091289        -0.047120         0.985330
 C         0.240143        -0.168781        -0.235845
 O         0.493518        -0.798945         2.031450
 H         1.891798        -2.395747        -0.463343
 H         2.178096        -1.161478        -1.620396
 H         3.510935        -1.974590        -0.747856
 H         4.575720         0.295810         0.563059
 H         3.414392         2.420428         1.626434
 H         0.861314         2.092575         1.859541
 H         0.011179        -1.208582        -0.408941
 H        -0.744949         0.306604        -0.196060
 H         0.776015         0.433261        -0.925534
 H         1.280511        -1.150861         2.681239
