19
Iteration:  2571charge 0 multiplicity 1
 C         2.795287        -1.763448        -0.508697
 C         2.516596        -0.745323         0.532458
 O         3.344180        -0.767367         1.729075
 C         3.469695         0.344470         0.864834
 C         2.709133         1.554253         1.386683
 C         1.417420         1.315727         1.604417
 C         1.093299        -0.067658         0.980649
 C         0.139543         0.215155        -0.142501
 O         0.435050        -1.080483         1.785987
 H         2.062830        -1.923072        -1.259317
 H         3.779681        -1.523844        -0.958270
 H         3.021992        -2.787486        -0.067034
 H         4.441344         0.507278         0.260345
 H         3.000979         2.599975         1.344130
 H         0.520025         1.935095         1.900472
 H         0.500521         0.876097        -0.924751
 H        -0.147263        -0.735718        -0.593225
 H        -0.738113         0.663030         0.362548
 H         0.954680        -1.156543         2.579208
