19
Iteration:  1144
 C         2.811809        -1.771591        -0.505466
 C         2.449822        -0.699025         0.559512
 O         3.401738        -0.892253         1.634374
 C         3.483546         0.403291         0.829260
 C         2.767050         1.564194         1.432106
 C         1.475633         1.354374         1.573260
 C         1.062116        -0.138270         0.949282
 C         0.068153         0.174354        -0.173868
 O         0.372160        -0.933862         1.880254
 H         2.298282        -2.686231        -0.332009
 H         2.666408        -1.441817        -1.485809
 H         3.907581        -1.959833        -0.307082
 H         4.373052         0.438848         0.215741
 H         3.394332         2.432806         1.820495
 H         0.742748         1.840205         2.198206
 H         0.045015         1.200262        -0.388960
 H         0.106816        -0.457547        -0.965506
 H        -0.839412        -0.102309         0.192986
 H         1.058674        -1.561519         2.343512
