19
Iteration:  2108charge 0 multiplicity 1
 C         2.650424        -1.629200        -0.615069
 C         2.500476        -0.655492         0.544220
 O         3.365970        -0.991533         1.690881
 C         3.445516         0.444927         0.974607
 C         2.740786         1.500769         1.650972
 C         1.422282         1.387654         1.385575
 C         1.139854        -0.040836         0.929009
 C         0.100176        -0.138421        -0.220361
 O         0.553556        -0.828620         1.900402
 H         2.045131        -2.500939        -0.452563
 H         2.026542        -1.210299        -1.371252
 H         3.670113        -1.857667        -0.912292
 H         4.375160         0.551398         0.481509
 H         3.159373         2.373117         2.192958
 H         0.705466         2.142042         1.663489
 H         0.491501         0.392105        -1.094111
 H         0.038607        -1.149815        -0.605042
 H        -0.890925         0.254631        -0.082716
 H         1.234340        -1.172728         2.435118
