19
Iteration:  1165charge 0 multiplicity 1
 C         2.612092        -1.775773        -0.466709
 C         2.508909        -0.592496         0.421201
 O         3.252970        -0.744479         1.727020
 C         3.548931         0.384222         0.856553
 C         2.735220         1.535791         1.415774
 C         1.510550         1.159991         1.649659
 C         1.098785        -0.087328         0.890083
 C         0.119385         0.200241        -0.203328
 O         0.539839        -1.054816         1.859873
 H         1.922997        -2.488023        -0.066557
 H         2.299920        -1.524565        -1.445977
 H         3.647723        -2.242321        -0.487062
 H         4.594391         0.426069         0.556727
 H         3.233475         2.520100         1.679964
 H         0.668572         1.763813         1.946151
 H         0.383934         1.165898        -0.574901
 H         0.181776        -0.596066        -0.874396
 H        -0.925525         0.162281         0.072969
 H         1.258461        -1.163146         2.539345
