19
Iteration:  2230charge 0 multiplicity 1
 C         2.552584        -1.623930        -0.623841
 C         2.501596        -0.672186         0.527600
 O         3.288809        -0.732270         1.718788
 C         3.486360         0.405013         0.882567
 C         2.730627         1.523756         1.521378
 C         1.395596         1.228689         1.607745
 C         1.207070        -0.067063         0.947840
 C         0.241856        -0.094016        -0.277052
 O         0.513998        -0.963511         1.904730
 H         1.649396        -2.292554        -0.743330
 H         2.828966        -1.120757        -1.574740
 H         3.365365        -2.234734        -0.358857
 H         4.412820         0.418015         0.244127
 H         3.307403         2.348366         1.896677
 H         0.586830         1.914038         1.950705
 H         0.744035         0.220964        -1.235714
 H        -0.350185        -1.032404        -0.311258
 H        -0.360533         0.775199        -0.080315
 H         1.139595        -1.133033         2.703475
