19
Iteration:   653charge 0 multiplicity 1
 C         2.566753        -1.937634        -0.378895
 C         2.525665        -0.629782         0.510542
 O         3.443999        -0.719119         1.642779
 C         3.503630         0.429073         0.840357
 C         2.797419         1.548302         1.562641
 C         1.458052         1.221500         1.560606
 C         1.092501        -0.106658         0.898286
 C         0.205060         0.168230        -0.281950
 O         0.363710        -0.953907         1.808030
 H         2.031751        -2.726384         0.191202
 H         1.946786        -1.744180        -1.312631
 H         3.575192        -2.273205        -0.562231
 H         4.422299         0.466876         0.279860
 H         3.343900         2.388464         2.106059
 H         0.697074         1.829817         2.114999
 H        -0.036057        -0.732485        -0.883597
 H        -0.747826         0.594808         0.172562
 H         0.662003         0.968018        -0.958471
 H         0.952877        -1.183637         2.590815
