19
Iteration:  2389
 C         2.533007        -1.617657        -0.570250
 C         2.535728        -0.599500         0.593949
 O         3.332575        -0.851001         1.746310
 C         3.477970         0.390403         0.947110
 C         2.713450         1.521527         1.544997
 C         1.410309         1.274707         1.476786
 C         1.163056        -0.093943         0.884646
 C         0.203233        -0.041700        -0.263526
 O         0.552221        -0.941518         1.851130
 H         1.673059        -2.321441        -0.503048
 H         2.492304        -1.063809        -1.569265
 H         3.509813        -2.199171        -0.600009
 H         4.462691         0.471764         0.437853
 H         3.194899         2.381019         1.992474
 H         0.611409         1.735560         2.139273
 H         0.634261         0.320218        -1.218617
 H        -0.008481        -1.147015        -0.490398
 H        -0.771027         0.543060        -0.178022
 H         1.163924        -0.913195         2.567054
