19
Iteration:  1666charge 0 multiplicity 1
 C         2.646761        -1.643447        -0.531789
 C         2.494045        -0.669015         0.592805
 O         3.353617        -0.863754         1.719320
 C         3.498438         0.344694         0.886473
 C         2.753788         1.556722         1.359662
 C         1.443383         1.335026         1.526748
 C         1.132801        -0.143209         1.035230
 C         0.313679         0.110495        -0.222424
 O         0.330218        -1.071207         1.894719
 H         2.010093        -2.568132        -0.467016
 H         2.358392        -0.972920        -1.428178
 H         3.627673        -2.010674        -0.657757
 H         4.301923         0.500078         0.154370
 H         3.072185         2.632938         1.416382
 H         0.644813         1.968280         1.908288
 H         0.955684         0.900621        -0.717611
 H         0.196598        -0.530161        -1.137065
 H        -0.636343         0.526023         0.109216
 H         0.688707        -1.062362         2.740053
