19
Iteration:  2970
 C         2.653268        -1.490855        -0.704538
 C         2.543455        -0.660024         0.624496
 O         3.279389        -0.891199         1.932772
 C         3.453064         0.424295         0.811515
 C         2.650973         1.673403         1.175960
 C         1.378535         1.239734         1.506500
 C         1.122754        -0.167966         0.984049
 C         0.048965        -0.074971        -0.158480
 O         0.722956        -1.037570         2.008394
 H         2.603459        -0.788424        -1.489918
 H         3.637578        -2.087833        -0.822545
 H         1.825356        -2.226429        -1.032714
 H         4.423839         0.573776         0.273850
 H         3.135224         2.649518         1.435774
 H         0.524134         1.755615         1.946799
 H         0.428854         0.720229        -0.815563
 H         0.019966        -0.974828        -0.803745
 H        -0.850237         0.311382         0.399804
 H         1.562081        -1.271417         2.488599
