19
Iteration:  2252charge 0 multiplicity 1
 C         2.512261        -1.673689        -0.452956
 C         2.504136        -0.601723         0.587389
 O         3.405240        -0.875519         1.706382
 C         3.467443         0.490008         0.902882
 C         2.776888         1.658319         1.452952
 C         1.425314         1.306242         1.546140
 C         1.050708        -0.074113         0.957844
 C         0.201118         0.026544        -0.331154
 O         0.518478        -1.133736         1.865703
 H         1.635632        -2.378475        -0.210845
 H         2.253336        -1.300119        -1.472702
 H         3.357239        -2.274778        -0.559801
 H         4.440735         0.419063         0.325295
 H         3.323317         2.516963         1.795532
 H         0.714335         1.931154         2.142473
 H         1.070746         0.603261        -0.840893
 H         0.101706        -0.970648        -0.789502
 H        -0.631358         0.702608        -0.322249
 H         1.257670        -1.549737         2.323997
