19
Iteration:  4672
 C         2.481143        -1.828510        -0.484782
 C         2.529164        -0.660120         0.518452
 O         3.550492        -0.532446         1.663491
 C         3.432680         0.522348         0.680245
 C         2.626669         1.671664         1.292364
 C         1.450156         1.083422         1.663179
 C         1.133133        -0.183401         0.994729
 C         0.167557        -0.002557        -0.087670
 O         0.527982        -1.096359         1.947935
 H         3.462006        -2.446296        -0.222388
 H         1.613207        -2.470228        -0.105401
 H         2.554579        -1.532440        -1.594162
 H         4.261713         0.714090        -0.081800
 H         3.068881         2.681717         1.521958
 H         0.667774         1.653296         2.153113
 H         0.511228         0.358578        -1.099431
 H        -0.521720        -0.845014        -0.400968
 H        -0.373291         0.978886         0.006514
 H         1.221039        -1.131803         2.621100
