19
Iteration:  4549
 C         2.719415        -1.616154        -0.601917
 C         2.461441        -0.530544         0.470910
 O         3.280466        -0.808483         1.649778
 C         3.471711         0.482398         0.782299
 C         2.732577         1.562637         1.330444
 C         1.351433         1.319027         1.399528
 C         1.077067        -0.133900         0.929290
 C        -0.045044        -0.227022        -0.006029
 O         0.808008        -0.969945         2.156253
 H         1.814347        -2.244705        -0.575903
 H         2.860837        -1.199028        -1.616771
 H         3.538247        -2.314373        -0.454556
 H         4.386896         0.621222         0.266146
 H         3.366280         2.389092         1.724685
 H         0.538797         1.830615         1.991965
 H         0.039204         0.357828        -0.877892
 H        -0.270407        -1.254392        -0.235899
 H        -1.028708         0.218720         0.179575
 H         1.679636        -1.091016         2.549246
