19
Iteration:  2891
 C         2.618052        -1.814948        -0.463252
 C         2.507847        -0.648623         0.499136
 O         3.577388        -0.647768         1.610377
 C         3.487467         0.527200         0.772280
 C         2.608931         1.547666         1.533384
 C         1.377947         1.148290         1.666646
 C         1.080477        -0.119378         0.919125
 C         0.037215         0.016297        -0.212724
 O         0.561590        -0.982034         1.875960
 H         1.759521        -1.925767        -1.192326
 H         3.472309        -1.786492        -1.124538
 H         2.749443        -2.770850         0.075456
 H         4.375763         0.915654         0.296806
 H         3.041028         2.383898         2.061944
 H         0.608565         1.804009         2.050015
 H         0.527799         0.183457        -1.229112
 H        -0.519486        -0.962059        -0.257242
 H        -0.687060         0.802112         0.070781
 H         1.399290        -1.306721         2.386991
