19
Iteration:  2178
 C         2.981763        -1.506173        -0.675770
 C         2.488405        -0.696596         0.432126
 O         3.373894        -0.960308         1.703362
 C         3.449743         0.279905         1.027403
 C         2.732154         1.481984         1.554203
 C         1.468861         1.287351         1.272021
 C         0.966690        -0.067667         0.966002
 C        -0.083271        -0.050833        -0.075960
 O         0.468452        -0.785621         1.983839
 H         2.296309        -2.294168        -1.065069
 H         3.189966        -0.918161        -1.585123
 H         3.857437        -1.917705        -0.242676
 H         4.410250         0.445927         0.455772
 H         3.236648         2.374387         1.836520
 H         0.806933         2.146754         1.503089
 H         0.178029         0.440715        -1.017115
 H        -0.288074        -1.093308        -0.261587
 H        -0.908008         0.414134         0.439776
 H         1.243361        -1.269633         2.443627
