19
Iteration:   868
 C         2.701287        -1.697553        -0.554766
 C         2.560969        -0.671511         0.533030
 O         3.248793        -0.868784         1.777876
 C         3.559640         0.334169         0.898452
 C         2.767507         1.541370         1.312011
 C         1.487625         1.245999         1.522329
 C         1.089425        -0.075567         0.988226
 C         0.121717         0.161864        -0.192427
 O         0.431447        -0.975299         1.880257
 H         2.108111        -2.574504        -0.233100
 H         2.273687        -1.325066        -1.500576
 H         3.750725        -1.940224        -0.750810
 H         4.598019         0.310216         0.658831
 H         3.182937         2.524173         1.506221
 H         0.691671         1.786288         1.962689
 H        -0.733484         0.664069         0.200831
 H         0.590249         0.776793        -0.932668
 H        -0.142116        -0.733929        -0.699731
 H         0.894158        -0.921120         2.675539
