19
Iteration:  2892
 C         2.614490        -1.823772        -0.464078
 C         2.517653        -0.649509         0.504371
 O         3.581416        -0.651065         1.609111
 C         3.491826         0.527137         0.772861
 C         2.606943         1.547872         1.539119
 C         1.372108         1.149810         1.667063
 C         1.078781        -0.110983         0.909490
 C         0.026720         0.017248        -0.219994
 O         0.562380        -0.978684         1.879337
 H         1.789574        -1.906807        -1.200084
 H         3.502443        -1.788424        -1.128415
 H         2.745037        -2.818260         0.063806
 H         4.365388         0.929733         0.250895
 H         3.015153         2.399042         2.086328
 H         0.633348         1.797784         2.089407
 H         0.507298         0.179533        -1.227155
 H        -0.478729        -0.978392        -0.254323
 H        -0.694485         0.796731         0.104708
 H         1.377866        -1.290044         2.388747
