19
Iteration:  2499charge 0 multiplicity 1
 C         2.643155        -1.540056        -0.599674
 C         2.485370        -0.615685         0.524410
 O         3.292797        -0.963211         1.699159
 C         3.490843         0.407516         0.989113
 C         2.769465         1.584026         1.598362
 C         1.424316         1.420656         1.479241
 C         1.107506        -0.124915         0.870726
 C         0.214331        -0.168145        -0.281013
 O         0.508034        -0.910125         1.925431
 H         1.612401        -1.649817        -1.083309
 H         3.247983        -1.319349        -1.514324
 H         2.888756        -2.521366        -0.262352
 H         4.434409         0.174233         0.513365
 H         3.185718         2.584415         1.667169
 H         0.701558         1.974195         2.038294
 H         0.729256         0.097116        -1.216650
 H        -0.083250        -1.266794        -0.360762
 H        -0.709113         0.363197         0.085940
 H         1.117398        -0.889853         2.666826
