19
Iteration:  3962
 C         2.748594        -1.650737        -0.519355
 C         2.510773        -0.566361         0.488435
 O         3.372395        -0.816798         1.530853
 C         3.515237         0.517403         0.833094
 C         2.639310         1.603419         1.433692
 C         1.342994         1.261274         1.422609
 C         1.047458        -0.151765         0.944608
 C        -0.091691        -0.126891        -0.104774
 O         0.734715        -0.979462         2.092785
 H         3.255926        -2.468094         0.189380
 H         1.974363        -2.142077        -1.039566
 H         3.358503        -1.442705        -1.388174
 H         4.436243         0.480327         0.352998
 H         2.891798         2.459566         2.064476
 H         0.656778         1.897472         1.904630
 H         0.447394        -0.203388        -1.019570
 H        -0.634156        -1.116330        -0.015137
 H        -0.704966         0.810939         0.064956
 H         1.613830        -1.035010         2.422644
