19
Iteration:  3442
 C         2.542013        -1.692410        -0.480125
 C         2.518816        -0.577736         0.492519
 O         3.550505        -0.741582         1.530591
 C         3.441597         0.512705         0.875022
 C         2.683457         1.645090         1.381760
 C         1.401978         1.275778         1.592838
 C         1.079729        -0.178401         1.056640
 C         0.094220        -0.077433        -0.207485
 O         0.568710        -1.123734         1.988825
 H         1.704958        -1.664069        -1.314820
 H         3.502605        -1.743742        -1.045907
 H         2.397249        -2.645351         0.027405
 H         4.357948         0.635713         0.241949
 H         3.047810         2.668162         1.499785
 H         0.623824         1.760513         2.164276
 H         0.626000         0.653095        -0.885134
 H         0.060672        -1.020028        -0.794067
 H        -0.951706         0.243001        -0.024405
 H         1.148714        -0.803660         2.785417
