19
Iteration:  1241charge 0 multiplicity 1
 C         2.820918        -1.710092        -0.657792
 C         2.553565        -0.711223         0.477743
 O         3.403719        -0.815250         1.685945
 C         3.455003         0.412024         0.786400
 C         2.735341         1.536505         1.514417
 C         1.436118         1.193768         1.634075
 C         1.051964        -0.119347         0.937819
 C         0.135420         0.031668        -0.201692
 O         0.325971        -0.843275         1.959771
 H         2.330380        -2.662011        -0.518779
 H         2.612169        -1.315378        -1.604336
 H         3.964994        -1.887829        -0.528040
 H         4.338607         0.488687         0.193623
 H         3.265266         2.134911         2.261796
 H         0.731128         1.783183         2.206550
 H         0.647441         0.041498        -1.181843
 H        -0.706712        -0.675586        -0.072774
 H        -0.436141         1.100372        -0.200234
 H         0.871570        -0.938213         2.717675
