19
Iteration:  3484
 C         2.949325        -1.667981        -0.586283
 C         2.473004        -0.803206         0.525537
 O         3.496058        -0.648944         1.550355
 C         3.369934         0.442742         0.716448
 C         2.663848         1.634943         1.357200
 C         1.476269         1.094886         1.677950
 C         1.077931        -0.217232         0.953071
 C        -0.014804         0.025686        -0.056889
 O         0.385526        -0.857110         2.032830
 H         1.994655        -2.145380        -1.201473
 H         3.814892        -1.274748        -1.133094
 H         3.391637        -2.667861        -0.236857
 H         4.277761         0.681912         0.084665
 H         3.213833         2.539481         1.686870
 H         0.749494         1.353518         2.439739
 H         0.363282         0.415850        -1.085535
 H        -0.329199        -0.975503        -0.421016
 H        -0.846742         0.598965         0.350322
 H         0.875732        -1.405623         2.637888
