19
Iteration:   604
 C         2.624759        -1.693445        -0.552597
 C         2.525510        -0.655219         0.535320
 O         3.229327        -0.839874         1.843012
 C         3.525262         0.357507         0.929072
 C         2.735795         1.568284         1.186619
 C         1.516916         1.268241         1.596997
 C         1.127603        -0.112437         1.000737
 C         0.178945         0.224103        -0.210871
 O         0.469229        -1.077712         1.870203
 H         1.937656        -2.521811        -0.387702
 H         2.400946        -1.247915        -1.499416
 H         3.644773        -2.094479        -0.500914
 H         4.602289         0.450586         0.699462
 H         3.066376         2.573040         1.114937
 H         0.826565         1.957801         2.007924
 H        -0.555231        -0.568715        -0.305979
 H        -0.267545         1.186493        -0.185804
 H         0.780343         0.083544        -1.066611
 H         1.123134        -1.494360         2.394124
