19
Iteration:  1688
 C         2.574410        -1.709227        -0.480396
 C         2.499406        -0.728100         0.654990
 O         3.552419        -0.718907         1.703755
 C         3.474690         0.406030         0.772704
 C         2.755227         1.539741         1.411864
 C         1.507112         1.141833         1.711961
 C         1.067030        -0.104755         0.981560
 C         0.273933         0.114600        -0.289423
 O         0.206346        -0.925135         1.796984
 H         1.973565        -2.649021        -0.337180
 H         2.264898        -1.090341        -1.387434
 H         3.563359        -2.061437        -0.473442
 H         4.317791         0.632166         0.114952
 H         3.348441         2.406764         1.807768
 H         0.739538         1.637243         2.349223
 H         0.864745         0.623022        -1.078967
 H         0.430971        -0.871995        -0.810141
 H        -0.784603         0.321129        -0.266564
 H         0.873700        -1.427360         2.412052
