19
Iteration:  4262charge 0 multiplicity 1
 C         2.852981        -1.643833        -0.608333
 C         2.539995        -0.559967         0.403707
 O         3.282725        -0.772618         1.643481
 C         3.430700         0.508110         0.799455
 C         2.709032         1.663881         1.303511
 C         1.396322         1.269782         1.352303
 C         1.078620        -0.205761         1.010725
 C        -0.161627        -0.103130         0.076782
 O         0.706289        -1.090179         2.143077
 H         2.234126        -1.521062        -1.562021
 H         3.947261        -1.433212        -0.980927
 H         2.878690        -2.740861        -0.145706
 H         4.398481         0.544278         0.384714
 H         3.059521         2.673124         1.482288
 H         0.614831         1.955839         1.696047
 H         0.190661         0.409579        -0.872884
 H        -0.389934        -1.127098        -0.220642
 H        -1.008279         0.321532         0.637999
 H         1.655980        -1.294534         2.440120
