19
Iteration:  1244charge 0 multiplicity 1
 C         2.865852        -1.714332        -0.676987
 C         2.532401        -0.726236         0.477842
 O         3.392957        -0.801311         1.694557
 C         3.441070         0.409192         0.773872
 C         2.721558         1.493330         1.508763
 C         1.452991         1.196313         1.642831
 C         1.050225        -0.110861         0.957310
 C         0.116954         0.038495        -0.185250
 O         0.335514        -0.815808         1.949262
 H         2.369762        -2.660170        -0.560287
 H         2.661481        -1.273367        -1.647803
 H         3.916785        -1.845641        -0.564197
 H         4.341394         0.472135         0.150281
 H         3.204267         2.077377         2.245795
 H         0.689225         1.800794         2.204968
 H         0.609811        -0.010217        -1.129305
 H        -0.643395        -0.703814        -0.242431
 H        -0.268848         0.981050        -0.108227
 H         0.844306        -0.860927         2.866616
