19
Iteration:  2202charge 0 multiplicity 1
 C         2.860369        -1.595786        -0.668388
 C         2.615970        -0.687963         0.511445
 O         3.359092        -0.939278         1.659349
 C         3.528405         0.429918         0.938483
 C         2.726925         1.515614         1.519343
 C         1.425403         1.288807         1.457391
 C         1.064387        -0.086392         0.911639
 C        -0.092310        -0.050613        -0.280018
 O         0.428104        -0.875151         2.055291
 H         2.077366        -2.250215        -1.019801
 H         3.248593        -1.119656        -1.570996
 H         3.695652        -2.212721        -0.193536
 H         4.523739         0.512933         0.540273
 H         3.244701         2.325072         2.038855
 H         0.754882         1.914389         2.035744
 H         0.233767         0.165459        -1.305299
 H        -0.669134        -0.967091        -0.238847
 H        -0.659228         0.769849         0.216614
 H         0.960777        -0.741897         2.881000
