19
Iteration:   464charge 0 multiplicity 1
 C         2.977403        -1.687147        -0.657749
 C         2.492390        -0.684716         0.461674
 O         3.196157        -0.886157         1.750935
 C         3.494937         0.258470         0.979211
 C         2.811344         1.499009         1.437426
 C         1.424378         1.339772         1.357501
 C         1.076663        -0.032730         0.881800
 C        -0.060027         0.084901        -0.035948
 O         0.473250        -0.883673         1.967085
 H         2.328125        -2.569189        -0.714702
 H         3.022009        -1.250371        -1.623317
 H         3.963661        -2.122114        -0.354507
 H         4.572566         0.319333         0.754871
 H         3.406428         2.468271         1.585871
 H         0.754449         2.170995         1.593007
 H        -0.740247        -0.786862         0.050272
 H        -0.614505         1.001537         0.116702
 H         0.258480        -0.020278        -1.068182
 H         1.281968        -1.093887         2.584925
