19
Iteration:  2038charge 0 multiplicity 1
 C         2.698030        -1.727791        -0.407087
 C         2.478260        -0.684156         0.587780
 O         3.441241        -0.767996         1.678679
 C         3.379055         0.425661         0.802023
 C         2.723817         1.601448         1.294970
 C         1.482253         1.210778         1.648274
 C         1.071988        -0.174088         1.073988
 C         0.251086         0.273292        -0.139580
 O         0.373052        -1.120115         1.757162
 H         1.961377        -2.539370        -0.355725
 H         2.604163        -1.370720        -1.441532
 H         3.721305        -2.061758        -0.230098
 H         4.136709         0.592422        -0.000008
 H         3.261890         2.530882         1.483077
 H         0.647675         1.728108         2.147140
 H         0.944003         0.391780        -0.996339
 H        -0.409539        -0.515001        -0.528068
 H        -0.280454         1.258000        -0.107592
 H         0.926023        -1.778015         2.232398
