19
Iteration:  2977
 C         2.664747        -1.470711        -0.697423
 C         2.551689        -0.661180         0.596884
 O         3.256532        -0.871623         1.903795
 C         3.468668         0.421656         0.821979
 C         2.634158         1.610678         1.231173
 C         1.380473         1.227143         1.420048
 C         1.143159        -0.156248         0.973513
 C         0.073360        -0.036213        -0.124932
 O         0.732297        -1.056420         2.025227
 H         2.599805        -0.702902        -1.543980
 H         3.604324        -1.936784        -0.736708
 H         1.796949        -2.093793        -0.748657
 H         4.494853         0.410679         0.441726
 H         3.029272         2.632865         1.262177
 H         0.518246         1.678971         1.882347
 H         0.350370         0.756613        -0.886051
 H        -0.224932        -1.051405        -0.462582
 H        -0.929459         0.226955         0.260114
 H         1.507963        -1.169960         2.522321
