19
Iteration:  1757charge 0 multiplicity 1
 C         2.541235        -1.828304        -0.396965
 C         2.524572        -0.681055         0.576080
 O         3.415618        -0.800283         1.740857
 C         3.387529         0.438203         0.830064
 C         2.688216         1.591139         1.427613
 C         1.448890         1.178777         1.644568
 C         1.174660        -0.049697         0.924904
 C         0.246652         0.295640        -0.306951
 O         0.487132        -1.131451         1.763806
 H         2.290814        -2.772558         0.052389
 H         1.893558        -1.528325        -1.193565
 H         3.564682        -1.975114        -0.776164
 H         4.314764         0.540972         0.263604
 H         3.286563         2.407447         1.751798
 H         0.672619         1.766504         2.089847
 H         0.878811         0.612121        -1.111886
 H        -0.285162        -0.560528        -0.663711
 H        -0.428392         1.118386        -0.053555
 H         0.787494        -0.913202         2.671202
