19
Iteration:  1902
 C         2.731796        -1.368705        -0.762662
 C         2.501689        -0.744828         0.595228
 O         3.152238        -0.914933         1.789937
 C         3.562606         0.225012         1.133651
 C         2.840534         1.568996         1.392255
 C         1.521028         1.399023         1.327841
 C         1.115908        -0.075700         0.918600
 C         0.000956        -0.143281        -0.269583
 O         0.529163        -0.976514         2.052295
 H         1.892520        -2.084589        -0.779891
 H         2.557981        -0.637469        -1.523773
 H         3.729281        -1.880370        -0.980559
 H         4.583196         0.280242         0.775614
 H         3.318520         2.425222         1.825826
 H         0.733913         2.132979         1.606133
 H         0.473938         0.014514        -1.243604
 H        -0.420436        -1.138646        -0.263601
 H        -0.672047         0.715626        -0.160491
 H         1.161315        -0.768118         2.753233
