19
Iteration:  4422charge 0 multiplicity 1
 C         2.632431        -1.729255        -0.427171
 C         2.506524        -0.585125         0.452963
 O         3.470661        -0.711101         1.587847
 C         3.479469         0.532070         0.714775
 C         2.636489         1.604109         1.239320
 C         1.340533         1.241255         1.566557
 C         1.065465        -0.117741         1.027462
 C        -0.087105        -0.074009         0.023062
 O         0.793466        -1.118580         1.993019
 H         3.108767        -1.418342        -1.377177
 H         3.438498        -2.269355         0.121819
 H         1.690306        -2.308151        -0.509051
 H         4.400760         0.658952         0.213897
 H         3.134959         2.595278         1.332133
 H         0.527036         1.956296         1.820214
 H         0.119029         0.690118        -0.793354
 H        -0.476568        -0.881452        -0.718683
 H        -1.108827         0.173110         0.512623
 H         1.624156        -1.246059         2.437488
