19
Iteration:  4266charge 0 multiplicity 1
 C         2.889292        -1.653124        -0.638265
 C         2.515319        -0.556088         0.423431
 O         3.277817        -0.726250         1.620839
 C         3.437651         0.452711         0.789642
 C         2.687348         1.663660         1.332051
 C         1.415211         1.298659         1.339851
 C         1.103876        -0.218900         1.024717
 C        -0.170340        -0.118294         0.101613
 O         0.698599        -1.084535         2.109908
 H         2.085410        -1.581288        -1.355350
 H         3.898632        -1.489565        -0.880741
 H         2.927116        -2.561067        -0.073920
 H         4.452195         0.458149         0.250375
 H         3.097881         2.615000         1.634075
 H         0.616878         1.903229         1.754063
 H         0.280982         0.380866        -0.714960
 H        -0.472224        -1.132501        -0.172405
 H        -1.106459         0.356233         0.435095
 H         1.615597        -1.266662         2.452907
