19
Iteration:   707
 C         2.645865        -1.742645        -0.541051
 C         2.412080        -0.697989         0.599220
 O         3.377295        -0.761419         1.730555
 C         3.452294         0.299891         0.881482
 C         2.869612         1.516840         1.492216
 C         1.539691         1.285628         1.455602
 C         1.108241        -0.088458         0.941574
 C         0.189463         0.068926        -0.266312
 O         0.331042        -0.887308         1.907925
 H         2.374110        -2.759070        -0.296338
 H         2.330187        -1.441321        -1.569555
 H         3.691321        -1.658493        -0.645133
 H         4.359475         0.316251         0.288106
 H         3.523684         2.305107         1.896685
 H         0.724746         1.853273         1.861959
 H         0.547471        -0.512669        -1.114479
 H        -0.822742        -0.337053        -0.064773
 H         0.057946         1.128079        -0.578963
 H         0.826881        -1.085938         2.755863
