19
Iteration:  2735
 C         2.742585        -1.547635        -0.686333
 C         2.548831        -0.705028         0.520911
 O         3.287721        -0.868004         1.764694
 C         3.509372         0.351036         1.088769
 C         2.684718         1.541240         1.381523
 C         1.358275         1.315163         1.360453
 C         1.091463        -0.134271         0.942418
 C         0.006235        -0.089892        -0.135180
 O         0.639645        -0.890563         1.961851
 H         3.557128        -2.247504        -0.608966
 H         1.795632        -2.091533        -0.884154
 H         2.946396        -0.933996        -1.551347
 H         4.559936         0.496423         0.687307
 H         3.335066         2.382110         1.699634
 H         0.655690         2.052274         1.702290
 H         0.147907         0.662968        -0.903389
 H        -0.111267        -0.969272        -0.776723
 H        -0.941595         0.245606         0.342127
 H         1.477538        -1.099006         2.503185
