19
Iteration:  4069
 C         2.632227        -1.811940        -0.463966
 C         2.527880        -0.604620         0.508696
 O         3.552849        -0.654423         1.568244
 C         3.430855         0.546147         0.649384
 C         2.629568         1.614317         1.456887
 C         1.328234         1.123123         1.575803
 C         1.101479        -0.113008         0.946721
 C         0.021647        -0.116376        -0.181117
 O         0.650083        -0.962693         2.068921
 H         1.673376        -2.374497        -0.496017
 H         2.741453        -1.369600        -1.431110
 H         3.501900        -2.412333        -0.132630
 H         4.267576         0.684998         0.035731
 H         3.106438         2.497123         1.935724
 H         0.470348         1.556929         2.048860
 H        -0.026927         0.885796        -0.726006
 H         0.048128        -0.939004        -0.927405
 H        -0.915052        -0.203351         0.420087
 H         1.393477        -0.965451         2.665004
