19
Iteration:  1365
 C         2.791471        -1.771342        -0.558798
 C         2.474557        -0.652738         0.411636
 O         3.341276        -0.903482         1.662677
 C         3.428023         0.396125         0.912848
 C         2.794647         1.559250         1.583703
 C         1.433713         1.304855         1.541086
 C         1.105261        -0.082322         0.887157
 C         0.083591         0.062552        -0.165976
 O         0.457352        -0.880112         1.894428
 H         2.068647        -2.537122        -0.245643
 H         2.634835        -1.429499        -1.620407
 H         3.742825        -2.155165        -0.417399
 H         4.436264         0.554548         0.403081
 H         3.199976         2.478230         2.018347
 H         0.688462         1.930384         2.037562
 H         0.582378         0.533633        -1.028417
 H        -0.350563        -0.903725        -0.596533
 H        -0.694172         0.682567         0.161963
 H         1.134119        -1.280522         2.529496
