19
Iteration:  2544charge 0 multiplicity 1
 C         2.775392        -1.737013        -0.481881
 C         2.580805        -0.608855         0.481385
 O         3.378461        -0.899154         1.660878
 C         3.483525         0.444284         0.869929
 C         2.720263         1.550356         1.575763
 C         1.423289         1.241414         1.515611
 C         1.076376        -0.117417         0.897335
 C         0.048957         0.077710        -0.275728
 O         0.441044        -0.901324         1.931779
 H         1.944245        -2.224922        -1.087261
 H         3.570150        -1.718905        -1.236582
 H         3.158157        -2.495347         0.159423
 H         4.336571         0.683412         0.254153
 H         2.983266         2.481957         2.086246
 H         0.605412         1.547540         2.097190
 H         0.663533         0.344606        -1.197568
 H        -0.687446        -0.665918        -0.654737
 H        -0.576839         0.919330         0.075016
 H         1.145976        -1.136729         2.530320
