19
Iteration:  4371
 C         2.733110        -1.742107        -0.498603
 C         2.524266        -0.617452         0.479313
 O         3.488596        -0.574250         1.574753
 C         3.454560         0.526835         0.609178
 C         2.603261         1.630603         1.231077
 C         1.452965         1.115873         1.625873
 C         1.085240        -0.166544         1.130247
 C         0.014557        -0.052616        -0.035844
 O         0.544264        -1.099453         2.038757
 H         2.456221        -1.449876        -1.512672
 H         3.803327        -1.960635        -0.563930
 H         1.983016        -2.447674        -0.128612
 H         4.353826         0.511054        -0.052206
 H         3.030337         2.632255         1.395648
 H         0.708505         1.501611         2.359301
 H         0.216488         0.386076        -1.033654
 H        -0.228836        -1.070023        -0.368179
 H        -0.855019         0.542237         0.240348
 H         1.156096        -1.064797         2.849770
