19
Iteration:   349charge 0 multiplicity 1
 C         2.693152        -1.913455        -0.401781
 C         2.502297        -0.719179         0.574735
 O         3.369300        -0.699111         1.753577
 C         3.470795         0.370862         0.744662
 C         2.854490         1.605545         1.327138
 C         1.624677         1.242064         1.606680
 C         1.105447        -0.116181         0.949112
 C         0.072762         0.274432        -0.156572
 O         0.301270        -1.018335         1.765870
 H         2.209408        -2.836254        -0.055309
 H         2.147109        -1.601033        -1.283528
 H         3.794942        -2.119482        -0.610929
 H         4.394225         0.258195         0.104983
 H         3.401481         2.508751         1.630210
 H         0.859769         1.674517         2.233695
 H         0.016652        -0.522557        -0.927967
 H        -0.850356         0.334693         0.480476
 H         0.330367         1.173994        -0.710860
 H         0.641410        -1.186050         2.593958
