19
Iteration:  4902
 C         2.664978        -1.746532        -0.450437
 C         2.492660        -0.716558         0.595290
 O         3.399990        -0.544816         1.746982
 C         3.401054         0.425716         0.688429
 C         2.746518         1.609728         1.211804
 C         1.510997         1.177167         1.558929
 C         1.097352        -0.207053         0.955945
 C         0.047773         0.020671        -0.056667
 O         0.576185        -1.104476         1.905198
 H         3.666690        -1.888038        -0.804653
 H         2.095559        -2.605261        -0.380947
 H         2.249282        -1.238732        -1.317394
 H         4.319249         0.509649         0.139603
 H         3.284323         2.558324         1.519825
 H         0.713794         1.821582         1.988007
 H         0.229008         0.812733        -0.758250
 H        -0.320646        -0.930940        -0.513483
 H        -0.815678         0.579105         0.409623
 H         0.989516        -0.859261         2.741839
