19
Iteration:   261charge 0 multiplicity 1
 C         2.472734        -1.495637        -0.665915
 C         2.469311        -0.655893         0.560250
 O         3.295256        -0.975763         1.739971
 C         3.543818         0.295922         0.972793
 C         2.829572         1.569183         1.340552
 C         1.472347         1.327134         1.444546
 C         1.092201        -0.043075         0.991901
 C         0.232257        -0.181242        -0.238978
 O         0.485403        -0.799294         2.029862
 H         1.866563        -2.397521        -0.483789
 H         2.196889        -1.135684        -1.637357
 H         3.526977        -1.965757        -0.688405
 H         4.552859         0.303160         0.572130
 H         3.445456         2.447540         1.605888
 H         0.859892         2.113819         1.864699
 H         0.013439        -1.240817        -0.443629
 H        -0.773875         0.288005        -0.159225
 H         0.756446         0.451387        -0.952945
 H         1.271700        -1.126479         2.648748
