19
Iteration:   189charge 0 multiplicity 1
 C         2.842669        -1.723536        -0.586357
 C         2.509261        -0.663758         0.444772
 O         3.137259        -1.043456         1.680565
 C         3.430764         0.424920         0.934860
 C         2.725008         1.514785         1.476023
 C         1.413708         1.313792         1.389779
 C         1.072391        -0.091153         0.864903
 C        -0.062618         0.069509        -0.160533
 O         0.770569        -0.761919         2.059675
 H         2.057347        -2.478271        -0.713373
 H         3.013621        -1.457411        -1.672877
 H         3.739224        -2.219181        -0.197707
 H         4.562042         0.418924         0.791133
 H         3.232783         2.363947         1.925353
 H         0.691422         1.988724         1.795604
 H        -0.387542        -0.900320        -0.558378
 H        -0.978658         0.468471         0.310089
 H         0.251003         0.797565        -0.929645
 H         1.673993        -1.099185         2.542573
