19
Iteration:  2510
 C         2.579320        -1.639804        -0.669608
 C         2.519338        -0.654866         0.545763
 O         3.319036        -0.871717         1.753401
 C         3.480747         0.386767         0.898457
 C         2.746314         1.588273         1.631596
 C         1.417928         1.344123         1.520801
 C         1.123215        -0.058611         0.904987
 C         0.199861        -0.197185        -0.291317
 O         0.518139        -0.867106         1.876415
 H         1.546881        -1.791328        -1.123939
 H         3.374336        -1.245893        -1.325169
 H         2.892301        -2.540363        -0.198119
 H         4.387760         0.637647         0.334076
 H         3.303148         2.240915         2.299612
 H         0.744481         1.867371         2.158387
 H         0.723872         0.048829        -1.234516
 H        -0.238578        -1.233506        -0.265275
 H        -0.574033         0.600066        -0.356756
 H         1.201469        -0.852881         2.645375
