19
Iteration:  3167charge 0 multiplicity 1
 C         2.609038        -1.819024        -0.486171
 C         2.525127        -0.574221         0.425581
 O         3.537994        -0.685747         1.549053
 C         3.451305         0.548756         0.777954
 C         2.654650         1.550256         1.522687
 C         1.379432         1.247726         1.568729
 C         1.085889        -0.197583         0.991066
 C         0.045207         0.001447        -0.237204
 O         0.579747        -1.037951         2.081357
 H         3.179974        -1.640414        -1.387131
 H         3.200092        -2.656136        -0.079478
 H         1.593087        -2.223441        -0.753740
 H         4.231743         0.984438         0.172713
 H         3.048439         2.506349         1.881190
 H         0.598549         1.875475         1.942123
 H         0.514777         0.782581        -0.930224
 H        -0.063693        -1.037289        -0.688169
 H        -1.017321         0.357791         0.066585
 H         1.388841        -1.323445         2.438664
