19
Iteration:   722
 C         2.661714        -1.604482        -0.541147
 C         2.562723        -0.697624         0.614476
 O         3.286629        -0.908740         1.862822
 C         3.571176         0.287834         0.885161
 C         2.814439         1.552045         1.321312
 C         1.532629         1.296820         1.506241
 C         1.087573        -0.084111         0.945075
 C         0.104948         0.037776        -0.237465
 O         0.377531        -0.905502         1.843894
 H         2.048433        -2.538643        -0.323597
 H         2.046165        -1.142582        -1.348188
 H         3.723306        -1.908380        -0.810760
 H         4.571647         0.356897         0.386775
 H         3.218529         2.539816         1.463463
 H         0.844782         2.071441         1.859372
 H         0.415095        -0.488044        -1.195141
 H        -0.856997        -0.372608         0.172981
 H        -0.058581         1.121801        -0.487332
 H         0.956377        -0.944780         2.555801
