19
Iteration:   456
 C         2.950342        -1.730979        -0.623397
 C         2.567631        -0.709158         0.487902
 O         3.230231        -0.847392         1.722676
 C         3.550132         0.310778         0.934036
 C         2.793496         1.463731         1.465485
 C         1.500400         1.365979         1.414854
 C         1.036238         0.024401         0.871463
 C        -0.149180         0.061773        -0.075703
 O         0.452097        -0.913116         1.936742
 H         2.149411        -2.508396        -0.710053
 H         3.127420        -1.287358        -1.616853
 H         3.939489        -2.233528        -0.249569
 H         4.605281         0.216279         0.553951
 H         3.228998         2.379198         1.926371
 H         0.743947         2.054009         1.815003
 H        -0.778269        -0.870066         0.138924
 H        -0.754876         1.038910        -0.140339
 H         0.285543        -0.095452        -1.112700
 H         1.099911        -0.830954         2.645970
