19
Iteration:   563
 C         2.756240        -1.706550        -0.530793
 C         2.480397        -0.611028         0.459259
 O         3.423276        -0.910123         1.658759
 C         3.490375         0.294711         0.936445
 C         2.787911         1.421681         1.592922
 C         1.474420         1.274891         1.494619
 C         0.987620        -0.020478         0.867553
 C        -0.002810        -0.018575        -0.306329
 O         0.479478        -0.746843         1.975485
 H         2.024361        -2.490506        -0.594473
 H         2.970162        -1.310522        -1.483931
 H         3.726493        -2.190437        -0.212208
 H         4.472836         0.461948         0.413652
 H         3.320131         2.168971         2.088733
 H         0.695185         1.902591         1.945968
 H        -0.475588        -0.998997        -0.389851
 H        -0.836532         0.635640        -0.039521
 H         0.330298         0.371526        -1.241242
 H         1.196417        -0.521394         2.698025
