19
Iteration:   986
 C         2.777999        -1.537315        -0.482055
 C         2.424076        -0.652375         0.658703
 O         3.401876        -0.877947         1.623153
 C         3.469867         0.375914         0.826988
 C         2.773786         1.525876         1.385494
 C         1.493259         1.141036         1.633214
 C         1.056024        -0.122745         0.962586
 C         0.146359         0.064144        -0.331152
 O         0.355577        -0.949577         1.973591
 H         2.173351        -2.491830        -0.451382
 H         2.616796        -1.010626        -1.474064
 H         3.871310        -1.734126        -0.563183
 H         4.303157         0.518371         0.185295
 H         3.315968         2.488316         1.624399
 H         0.749385         1.855326         2.041231
 H         0.861902        -0.021522        -1.217850
 H        -0.880052        -0.445798        -0.167962
 H        -0.243791         1.139889        -0.241309
 H         0.969571        -1.467040         2.375774
