19
Iteration:  3353
 C         2.885493        -1.620833        -0.733712
 C         2.493392        -0.701234         0.454498
 O         3.451231        -0.767815         1.631993
 C         3.413034         0.422090         0.715715
 C         2.647593         1.636845         1.364687
 C         1.364156         1.264361         1.493933
 C         1.142523        -0.228867         0.986397
 C        -0.019216        -0.076989         0.028100
 O         0.496968        -0.942733         2.148379
 H         3.995560        -1.398027        -0.995144
 H         2.872052        -2.661043        -0.412931
 H         2.155001        -1.499175        -1.591332
 H         4.296462         0.576462         0.121446
 H         3.220152         2.406536         1.857030
 H         0.579304         1.882593         1.985458
 H         0.271258         0.569749        -0.881855
 H        -0.395998        -1.083172        -0.280280
 H        -0.874833         0.338793         0.549532
 H         1.145598        -0.976952         2.945241
