19
Iteration:  1994
 C         2.445788        -1.810220        -0.400209
 C         2.505970        -0.665755         0.597584
 O         3.446438        -0.747055         1.669419
 C         3.424644         0.524595         0.783037
 C         2.733765         1.618968         1.533793
 C         1.495142         1.150493         1.631307
 C         1.151179        -0.117446         0.869353
 C         0.277665         0.118344        -0.251695
 O         0.483031        -1.036363         1.708138
 H         1.850999        -2.565351         0.137526
 H         1.818353        -1.771704        -1.307765
 H         3.369275        -2.258664        -0.636038
 H         4.474414         0.570123         0.412116
 H         3.085649         2.493134         2.132606
 H         0.758374         1.576948         2.321553
 H         0.436102         1.089976        -0.755043
 H         0.332564        -0.701260        -0.975648
 H        -0.649409         0.359607         0.282308
 H         0.808409        -0.953255         2.675038
