19
Iteration:  1556charge 0 multiplicity 1
 C         2.694426        -1.378016        -0.727824
 C         2.458556        -0.728586         0.551561
 O         3.308710        -0.986992         1.811256
 C         3.487161         0.221569         0.954000
 C         2.789629         1.472209         1.510417
 C         1.438729         1.270521         1.323594
 C         1.114717        -0.169006         0.974605
 C         0.236069        -0.091350        -0.337055
 O         0.400730        -0.685319         2.119515
 H         2.068337        -2.336814        -0.658172
 H         2.211881        -0.690756        -1.493362
 H         3.754956        -1.668444        -1.105995
 H         4.540160         0.292959         0.581881
 H         3.312939         2.321721         1.873058
 H         0.628405         1.850991         1.666933
 H         0.710811         0.658928        -1.065677
 H        -0.000215        -1.062833        -0.808878
 H        -0.796471         0.313878        -0.001999
 H         1.140454        -0.962645         2.640833
