19
Iteration:   742
 C         2.657225        -1.617031        -0.589289
 C         2.586733        -0.691276         0.596237
 O         3.184962        -0.984464         1.855166
 C         3.597619         0.358435         1.107808
 C         2.797261         1.580988         1.189147
 C         1.488013         1.334610         1.391264
 C         1.128753        -0.084756         0.923550
 C        -0.008723         0.113505        -0.192379
 O         0.543705        -0.951804         1.893527
 H         1.792521        -2.342651        -0.617009
 H         2.438931        -1.039582        -1.572141
 H         3.520692        -2.264105        -0.597417
 H         4.655918         0.160282         1.081059
 H         3.272963         2.522448         1.326352
 H         0.713269         1.950471         1.761850
 H         0.308689        -0.541465        -1.088729
 H        -0.950122        -0.295046         0.317177
 H        -0.134402         1.180645        -0.596349
 H         1.318795        -1.156426         2.394393
