19
Iteration:  1502
 C         2.686605        -1.755376        -0.474532
 C         2.467156        -0.592909         0.461809
 O         3.199816        -0.866163         1.679788
 C         3.617146         0.332166         0.995692
 C         2.821874         1.585278         1.515487
 C         1.498837         1.306686         1.494389
 C         1.071699        -0.086272         0.876038
 C         0.027290         0.125607        -0.149965
 O         0.532911        -1.000220         1.783600
 H         1.989138        -2.645862        -0.413311
 H         2.834483        -1.503903        -1.561364
 H         3.700979        -2.246332        -0.334681
 H         4.615039         0.495711         0.508498
 H         3.411683         2.362144         1.960535
 H         0.686666         1.948788         1.794036
 H         0.412710         0.653638        -1.070155
 H        -0.255645        -0.861564        -0.516941
 H        -0.791449         0.607308         0.494988
 H         0.939762        -0.799777         2.589910
