19
Iteration:  3155
 C         2.706588        -1.803840        -0.410276
 C         2.543177        -0.593173         0.481575
 O         3.446041        -0.772651         1.487148
 C         3.453808         0.602511         0.730634
 C         2.665183         1.598417         1.499986
 C         1.347687         1.145212         1.551795
 C         1.072650        -0.085132         0.965956
 C         0.042320         0.040850        -0.116868
 O         0.612169        -1.060512         1.979743
 H         3.080808        -1.548107        -1.338332
 H         3.324502        -2.500369         0.238237
 H         1.682104        -2.284326        -0.576933
 H         4.433936         0.686017         0.222602
 H         3.014508         2.584713         1.765767
 H         0.527143         1.723036         2.009124
 H         0.425509         0.615684        -1.008580
 H        -0.213182        -0.960464        -0.614299
 H        -0.973867         0.522917         0.248816
 H         1.355590        -1.233091         2.641573
