19
Iteration:  2908
 C         2.704282        -1.851262        -0.471731
 C         2.615499        -0.635208         0.508347
 O         3.592906        -0.722334         1.544166
 C         3.434868         0.570492         0.786012
 C         2.662108         1.558562         1.613227
 C         1.351889         1.262586         1.590206
 C         1.109157        -0.074454         0.885329
 C        -0.036772        -0.046773        -0.231993
 O         0.496115        -0.979315         1.927789
 H         1.986861        -1.605933        -1.275401
 H         3.754777        -2.000783        -0.850589
 H         2.292187        -2.708173         0.065254
 H         4.275361         0.649104         0.059617
 H         3.226769         2.348761         2.137977
 H         0.597971         1.284034         2.423298
 H         0.119980         0.578225        -1.075133
 H        -0.411580        -1.033855        -0.521516
 H        -0.991150         0.363991         0.121433
 H         1.202201        -0.916264         2.701537
