19
Iteration:  1199charge 0 multiplicity 1
 C         2.396904        -1.719917        -0.453216
 C         2.504040        -0.589195         0.523001
 O         3.398549        -0.828343         1.760398
 C         3.494326         0.417608         0.887190
 C         2.752270         1.580085         1.499158
 C         1.398551         1.343859         1.529573
 C         1.138213        -0.037957         0.917400
 C         0.210418         0.124537        -0.229517
 O         0.610839        -1.177967         1.750439
 H         1.729226        -2.409715         0.003990
 H         1.944721        -1.390361        -1.329768
 H         3.360752        -2.233976        -0.710890
 H         4.472205         0.529379         0.477603
 H         3.257565         2.413881         2.009785
 H         0.529483         1.896101         1.919447
 H         0.686796         0.228228        -1.178161
 H        -0.185645        -0.819132        -0.305011
 H        -0.515518         0.854530        -0.115526
 H         1.398031        -1.266665         2.467010
