19
Iteration:  1440charge 0 multiplicity 1
 C         2.527213        -1.790853        -0.513657
 C         2.472496        -0.621184         0.512669
 O         3.436771        -0.810525         1.661894
 C         3.457503         0.457960         0.854467
 C         2.774266         1.543911         1.519576
 C         1.474179         1.264465         1.654841
 C         1.071750        -0.107182         1.024473
 C         0.354124         0.125382        -0.284513
 O         0.366254        -1.034835         1.828701
 H         2.120824        -2.607918         0.054471
 H         1.930057        -1.501850        -1.410805
 H         3.484878        -2.046386        -0.743829
 H         4.373224         0.652392         0.194487
 H         3.309692         2.468620         1.576301
 H         0.668455         1.845537         2.017151
 H         0.928974         0.764608        -0.955492
 H         0.089765        -0.834579        -0.750117
 H        -0.602012         0.513744        -0.177001
 H         0.827626        -1.069139         2.631345
