19
Iteration:  4771
 C         2.840988        -1.545458        -0.661845
 C         2.452593        -0.676079         0.494277
 O         3.357516        -0.842806         1.679116
 C         3.509173         0.339866         0.915602
 C         2.683916         1.494014         1.351851
 C         1.364653         1.264596         1.281446
 C         1.074453        -0.097901         0.909884
 C        -0.079195        -0.137855        -0.013163
 O         0.637619        -0.842667         2.174740
 H         3.893042        -1.321288        -0.977087
 H         2.912654        -2.614043        -0.418725
 H         2.192913        -1.268325        -1.512180
 H         4.472410         0.530122         0.450324
 H         3.125829         2.446996         1.477156
 H         0.700535         2.038976         1.666407
 H         0.056401         0.287537        -0.996606
 H        -0.358034        -1.164801        -0.382955
 H        -0.951156         0.324330         0.476082
 H         1.432928        -0.856027         2.724473
