19
Iteration:  4016
 C         2.674515        -1.547362        -0.539875
 C         2.506374        -0.564756         0.518188
 O         3.414800        -0.708539         1.666252
 C         3.435800         0.492206         0.758450
 C         2.691164         1.603460         1.245169
 C         1.433555         1.253376         1.530156
 C         1.143050        -0.217850         1.039205
 C         0.006363        -0.196530        -0.145728
 O         0.569618        -1.079961         2.046594
 H         2.789207        -2.648110        -0.192728
 H         1.825133        -1.455721        -1.154038
 H         3.599391        -1.352940        -1.069193
 H         4.320385         0.513655         0.199376
 H         3.240252         2.525465         1.442593
 H         0.843910         1.833722         2.184895
 H         0.495322         0.210451        -0.943263
 H        -0.369102        -1.197415        -0.138320
 H        -0.773675         0.533928         0.119402
 H         1.149648        -1.085283         2.777011
