19
Iteration:  3226
 C         2.808239        -1.654169        -0.711851
 C         2.494907        -0.588477         0.362178
 O         3.489984        -0.720260         1.641147
 C         3.481090         0.440010         0.864100
 C         2.680397         1.669298         1.328674
 C         1.430896         1.263391         1.486850
 C         1.017186        -0.168557         1.076221
 C        -0.062774        -0.078552        -0.022397
 O         0.494390        -1.113087         2.084487
 H         3.907633        -1.420474        -1.012776
 H         2.901692        -2.601659        -0.194777
 H         2.275375        -1.725164        -1.669596
 H         4.362236         0.511939         0.176654
 H         3.208315         2.575466         1.582302
 H         0.700163         1.900985         2.078359
 H         0.520700         0.035808        -0.959664
 H        -0.486699        -1.059638         0.041976
 H        -0.741014         0.688835         0.249996
 H         0.959894        -1.036183         2.989917
