19
Iteration:   451
 C         2.915924        -1.753162        -0.574314
 C         2.585107        -0.699680         0.477038
 O         3.249431        -0.853616         1.725145
 C         3.585975         0.340738         0.902871
 C         2.824700         1.488622         1.484788
 C         1.510552         1.349397         1.449978
 C         1.011566         0.004534         0.891329
 C        -0.187607         0.030983        -0.151498
 O         0.460328        -0.900445         1.909632
 H         2.103999        -2.446855        -0.711956
 H         3.159624        -1.267348        -1.524251
 H         3.783740        -2.232684        -0.270536
 H         4.539715         0.394443         0.424280
 H         3.246689         2.283912         2.087823
 H         0.781584         1.968799         1.955040
 H        -0.827383        -0.742095         0.185949
 H        -0.755497         0.909850        -0.165311
 H         0.198738        -0.052839        -1.139409
 H         1.014103        -0.755860         2.734043
