19
Iteration:   770charge 0 multiplicity 1
 C         2.723363        -1.703730        -0.575438
 C         2.442556        -0.635705         0.477824
 O         3.150596        -0.859028         1.775230
 C         3.465980         0.279125         0.959971
 C         2.811475         1.436709         1.578431
 C         1.487925         1.433614         1.276317
 C         1.141619        -0.050090         0.875059
 C         0.008646         0.028769        -0.176206
 O         0.650061        -0.909416         1.960653
 H         1.871146        -2.271418        -0.917111
 H         3.047787        -1.193919        -1.450571
 H         3.503683        -2.364357        -0.163105
 H         4.489748         0.262236         0.590551
 H         3.456065         2.208096         2.011577
 H         0.678980         2.149957         1.422867
 H         0.055625        -0.856125        -0.732884
 H        -0.907587         0.097652         0.331110
 H         0.136014         0.834040        -0.840194
 H         1.433006        -0.903370         2.483971
