19
Iteration:   587
 C         2.760116        -1.750071        -0.588422
 C         2.537948        -0.733742         0.560151
 O         3.221431        -0.822664         1.748690
 C         3.472606         0.341980         0.843069
 C         2.778746         1.559661         1.424518
 C         1.433524         1.288451         1.473794
 C         1.083452        -0.119058         0.953332
 C         0.181016         0.156944        -0.170886
 O         0.475677        -0.949155         1.955334
 H         1.912691        -2.455257        -0.575850
 H         2.726608        -1.205642        -1.571166
 H         3.722898        -2.323413        -0.597018
 H         4.459408         0.362003         0.343261
 H         3.303414         2.436288         1.840036
 H         0.503946         1.875073         1.767696
 H        -0.699348        -0.518643        -0.214619
 H        -0.307965         1.173747        -0.014584
 H         0.622712         0.327926        -1.187598
 H         1.187551        -1.125143         2.503257
