19
Iteration:  4125
 C         2.751314        -1.669933        -0.524822
 C         2.534485        -0.629669         0.528810
 O         3.412750        -0.696553         1.664025
 C         3.382462         0.498340         0.758085
 C         2.588802         1.638772         1.193007
 C         1.405705         1.229311         1.530168
 C         1.090186        -0.154857         1.027837
 C         0.009397        -0.069901         0.049179
 O         0.701019        -1.102617         1.955338
 H         1.670730        -1.718290        -1.005095
 H         3.527789        -1.451486        -1.259964
 H         2.954878        -2.687593        -0.135684
 H         4.381347         0.561735         0.265870
 H         3.106330         2.603413         1.067030
 H         0.596426         1.793183         2.041226
 H         0.308762         0.528758        -0.830395
 H        -0.531577        -1.015425        -0.252987
 H        -0.860562         0.558239         0.465103
 H         1.443982        -1.358013         2.487277
