19
Iteration:  4743charge 0 multiplicity 1
 C         2.836963        -1.778451        -0.653022
 C         2.513699        -0.704612         0.510500
 O         3.291510        -0.789274         1.709768
 C         3.472304         0.500887         0.700244
 C         2.688683         1.623303         1.368497
 C         1.429543         1.239631         1.486679
 C         1.102039        -0.116916         0.900284
 C        -0.063891        -0.092170        -0.096873
 O         0.595858        -0.885177         2.144611
 H         3.734781        -1.495499        -1.181603
 H         3.024704        -2.767367        -0.168807
 H         2.035250        -1.569001        -1.358444
 H         4.449567         0.567928         0.232138
 H         3.223447         2.431783         1.929231
 H         0.795536         1.821026         2.162230
 H        -0.079210         0.772906        -0.816474
 H        -0.101539        -0.981198        -0.743871
 H        -0.931720         0.064565         0.548357
 H         1.455357        -0.979929         2.631556
