19
Iteration:   764charge 0 multiplicity 1
 C         2.685965        -1.673074        -0.567724
 C         2.479921        -0.655063         0.446437
 O         3.128650        -0.878609         1.826583
 C         3.468825         0.272599         1.019367
 C         2.801986         1.502700         1.521354
 C         1.496988         1.417960         1.257757
 C         1.160513        -0.054155         0.882267
 C         0.021373         0.046139        -0.144660
 O         0.654038        -0.948800         1.951518
 H         1.863219        -2.335066        -0.923940
 H         2.990534        -1.128865        -1.536403
 H         3.488469        -2.342685        -0.258607
 H         4.415418         0.180599         0.461899
 H         3.438340         2.332068         1.792579
 H         0.653365         2.098184         1.244550
 H         0.102593        -0.738905        -0.998472
 H        -0.982713         0.055060         0.402238
 H         0.186613         1.043291        -0.700744
 H         1.488601        -1.080158         2.596799
