19
Iteration:  4754charge 0 multiplicity 1
 C         2.868750        -1.619825        -0.653159
 C         2.537264        -0.693579         0.480599
 O         3.316589        -0.781751         1.741310
 C         3.412927         0.387654         0.779743
 C         2.741679         1.592998         1.334655
 C         1.427502         1.214607         1.450180
 C         1.053882        -0.242355         0.949859
 C        -0.110175        -0.105386        -0.084869
 O         0.652393        -0.785764         2.105085
 H         3.819674        -1.381677        -1.100776
 H         2.866819        -2.730694        -0.420083
 H         2.097705        -1.749990        -1.437824
 H         4.343693         0.431862         0.215268
 H         3.237019         2.430501         1.908324
 H         0.522019         1.672123         1.876304
 H         0.129411         0.773174        -0.752972
 H        -0.521856        -0.979068        -0.601675
 H        -1.012906         0.119710         0.502264
 H         1.395283        -0.779006         2.687243
