19
Iteration:  3379charge 0 multiplicity 1
 C         2.836421        -1.674928        -0.546064
 C         2.444147        -0.574118         0.395953
 O         3.350276        -0.786732         1.566811
 C         3.456386         0.446563         0.766544
 C         2.685026         1.616416         1.382048
 C         1.422337         1.229769         1.630412
 C         1.064944        -0.114404         0.968295
 C        -0.106397        -0.018096        -0.036962
 O         0.684048        -1.071638         2.027495
 H         3.536855        -1.304436        -1.239453
 H         3.342627        -2.445708         0.028928
 H         1.990105        -2.079598        -0.983570
 H         4.438160         0.664836         0.261476
 H         3.194358         2.587597         1.386805
 H         0.672536         1.924138         1.979122
 H         0.246876         0.291970        -0.995627
 H        -0.312625        -1.092429        -0.135568
 H        -1.084355         0.446515         0.153538
 H         1.351839        -1.062508         2.808774
