19
Iteration:  2618charge 0 multiplicity 1
 C         2.560653        -1.734057        -0.463515
 C         2.520000        -0.636729         0.530158
 O         3.430726        -0.745643         1.764340
 C         3.452856         0.402142         0.836647
 C         2.723937         1.584054         1.457161
 C         1.421695         1.281824         1.617378
 C         1.114181        -0.135070         0.984147
 C         0.199967         0.048300        -0.250680
 O         0.495565        -1.033044         1.781722
 H         2.522745        -1.358230        -1.569507
 H         3.396122        -2.468911        -0.422284
 H         1.703856        -2.383133        -0.481737
 H         4.349304         0.654699         0.247792
 H         3.180771         2.566931         1.637197
 H         0.624524         1.863787         2.021385
 H         0.360497         0.968083        -0.844789
 H         0.308172        -0.783837        -0.969664
 H        -0.824413         0.113514         0.147318
 H         1.200544        -1.306971         2.464345
