19
Iteration:  4087charge 0 multiplicity 1
 C         2.623756        -1.709411        -0.452219
 C         2.502680        -0.588040         0.444855
 O         3.446914        -0.572325         1.562198
 C         3.466867         0.537457         0.749372
 C         2.719208         1.573898         1.357106
 C         1.414113         1.266412         1.548095
 C         1.075157        -0.226079         1.013096
 C        -0.023759        -0.149659        -0.127978
 O         0.638357        -1.106098         2.026727
 H         1.705342        -2.211887        -0.574278
 H         3.031754        -1.632929        -1.488106
 H         3.136206        -2.532704         0.081623
 H         4.370072         0.818252         0.193857
 H         3.078453         2.528934         1.683812
 H         0.794606         1.873232         2.201262
 H         0.233941         0.840551        -0.521456
 H         0.188651        -1.016378        -0.724539
 H        -1.033159        -0.153677         0.207901
 H         1.357862        -0.977233         2.622199
