19
Iteration:  2211
 C         2.796113        -1.634362        -0.674642
 C         2.531126        -0.657157         0.459947
 O         3.356673        -0.872148         1.721361
 C         3.497470         0.409398         0.923245
 C         2.748042         1.539846         1.516367
 C         1.428614         1.195558         1.514523
 C         1.056167        -0.132167         0.931539
 C         0.035906        -0.040564        -0.221082
 O         0.481484        -0.857062         1.965837
 H         1.836860        -2.141225        -0.803025
 H         3.143203        -1.055574        -1.528666
 H         3.547313        -2.365664        -0.419169
 H         4.530034         0.606985         0.557514
 H         3.114730         2.427873         2.008504
 H         0.727884         1.723369         2.190023
 H         0.379262         0.138408        -1.249647
 H        -0.529292        -0.950580        -0.138892
 H        -0.729701         0.720355        -0.227110
 H         1.007429        -0.475310         2.715046
