19
Iteration:  2774charge 0 multiplicity 1
 C         2.722628        -1.675402        -0.528253
 C         2.503836        -0.566499         0.444263
 O         3.282115        -0.854052         1.574476
 C         3.434001         0.417646         0.901598
 C         2.740888         1.461150         1.569871
 C         1.398572         1.332278         1.543251
 C         1.097221        -0.103970         0.878051
 C         0.049255        -0.176382        -0.217998
 O         0.627312        -0.785207         1.958780
 H         3.045480        -2.569420         0.021863
 H         1.834383        -1.914562        -1.156373
 H         3.577531        -1.257155        -1.194931
 H         4.434697         0.532720         0.465277
 H         3.158960         2.129432         2.298647
 H         0.628551         1.871218         2.099906
 H         0.114153         0.762058        -0.802042
 H         0.397135        -1.016138        -0.824509
 H        -0.874626        -0.563019         0.238793
 H         1.332259        -0.872894         2.722735
