19
Iteration:  4407charge 0 multiplicity 1
 C         2.767735        -1.800195        -0.447852
 C         2.501513        -0.604396         0.494447
 O         3.487918        -0.662435         1.602387
 C         3.411616         0.504685         0.688469
 C         2.649161         1.692397         1.247480
 C         1.379973         1.289374         1.494071
 C         1.068935        -0.129443         1.013972
 C        -0.110336         0.014201         0.083698
 O         0.700702        -1.176599         1.933130
 H         2.922127        -1.522544        -1.523191
 H         3.467363        -2.607376        -0.122717
 H         1.883827        -2.515790        -0.558541
 H         4.301890         0.619275        -0.003442
 H         2.998295         2.651367         1.585135
 H         0.730480         1.817391         2.166964
 H         0.096594         0.698146        -0.712890
 H        -0.328791        -1.068063        -0.114890
 H        -0.994956         0.285259         0.700719
 H         1.450307        -1.394638         2.612909
