19
Iteration:  4989
 C         2.658771        -1.812646        -0.443076
 C         2.500741        -0.675468         0.580473
 O         3.576597        -0.601318         1.567585
 C         3.436986         0.494480         0.620743
 C         2.767031         1.610015         1.436212
 C         1.499048         1.147948         1.683184
 C         1.093368        -0.180157         0.982470
 C         0.081840        -0.082638        -0.256298
 O         0.341180        -0.927748         1.999992
 H         3.648985        -1.667267        -0.896951
 H         2.630809        -2.785254         0.045458
 H         1.829644        -1.854647        -1.170024
 H         4.231113         0.624804        -0.132249
 H         3.125541         2.653734         1.632167
 H         0.783578         1.583740         2.355808
 H         0.539165         0.372985        -1.163499
 H        -0.380677        -1.076181        -0.440243
 H        -0.833440         0.460323         0.173922
 H         0.852340        -0.727409         2.766145
