19
Iteration:  3661charge 0 multiplicity 1
 C         2.597117        -1.555304        -0.600591
 C         2.465715        -0.580881         0.492148
 O         3.449472        -0.810369         1.657510
 C         3.366515         0.459458         0.795607
 C         2.646489         1.638506         1.351982
 C         1.378028         1.281024         1.570511
 C         1.102913        -0.137559         0.969501
 C         0.090350        -0.214783        -0.112709
 O         0.720001        -0.998610         2.085873
 H         3.365648        -2.320880        -0.499871
 H         1.726733        -2.159961        -0.967959
 H         2.808072        -1.144401        -1.568326
 H         4.137583         0.621202         0.106724
 H         3.250459         2.476602         1.583587
 H         0.643904         1.939835         2.066196
 H         0.551186         0.171337        -0.975779
 H        -0.033646        -1.298799        -0.266111
 H        -0.881603         0.339126        -0.034505
 H         1.518562        -1.230551         2.571566
