19
Iteration:  1880
 C         2.672957        -1.381003        -0.729454
 C         2.434815        -0.576679         0.554680
 O         3.197336        -1.076780         1.805983
 C         3.507513         0.265417         1.014334
 C         2.776977         1.492494         1.566948
 C         1.469184         1.362709         1.323551
 C         1.161648        -0.008679         0.917770
 C         0.071148        -0.265273        -0.186229
 O         0.594627        -0.763163         1.957759
 H         1.816704        -1.993247        -0.822302
 H         2.977967        -0.831567        -1.594208
 H         3.569270        -2.036752        -0.430677
 H         4.448259         0.423730         0.471943
 H         3.263647         2.413986         1.879895
 H         0.637752         2.077176         1.476088
 H         0.571903        -0.136192        -1.153344
 H        -0.184086        -1.298727        -0.130201
 H        -0.717085         0.480372        -0.295756
 H         1.367077        -1.196183         2.348687
