19
Iteration:  2237
 C         2.500638        -1.637795        -0.591471
 C         2.491783        -0.645147         0.557676
 O         3.305816        -0.774876         1.728459
 C         3.472778         0.438895         0.836783
 C         2.746759         1.549726         1.514530
 C         1.434388         1.305159         1.575207
 C         1.146637        -0.126443         0.987312
 C         0.322433        -0.053875        -0.309096
 O         0.508316        -1.030994         1.901268
 H         1.607470        -2.254881        -0.534325
 H         2.701447        -1.080872        -1.517425
 H         3.427145        -2.294433        -0.374498
 H         4.446439         0.606400         0.413145
 H         3.225479         2.454615         1.936623
 H         0.693049         1.932635         2.062016
 H         0.648364         0.260073        -1.297818
 H        -0.304234        -0.977478        -0.366940
 H        -0.567792         0.671186        -0.192596
 H         1.269816        -1.258808         2.446302
