19
Iteration:  3370
 C         2.893776        -1.666366        -0.586738
 C         2.479249        -0.630862         0.461551
 O         3.343635        -0.797156         1.511728
 C         3.419212         0.470718         0.790365
 C         2.681179         1.543973         1.332563
 C         1.394772         1.261588         1.552439
 C         1.057038        -0.090087         1.071833
 C        -0.059929        -0.068047         0.017570
 O         0.634802        -1.013780         2.000394
 H         3.628265        -1.249857        -1.173243
 H         3.315452        -2.597557        -0.105263
 H         2.134694        -1.969862        -1.347373
 H         4.377345         0.633584         0.281418
 H         3.034549         2.608931         1.520480
 H         0.673767         1.758522         2.184118
 H         0.385152         0.404567        -0.810252
 H        -0.372688        -1.099673        -0.183759
 H        -0.900037         0.532237         0.452263
 H         1.243058        -0.767594         2.804919
