19
Iteration:  2297
 C         2.775196        -1.907880        -0.424220
 C         2.547457        -0.731968         0.520673
 O         3.330567        -0.688092         1.717460
 C         3.528312         0.451929         0.793539
 C         2.800669         1.634155         1.435610
 C         1.488637         1.198530         1.653412
 C         1.132469        -0.212414         0.899224
 C         0.018193         0.277522        -0.242862
 O         0.352356        -1.012744         1.774839
 H         2.712461        -2.883157         0.115694
 H         2.065664        -2.050824        -1.242485
 H         3.757096        -1.907829        -0.889059
 H         4.445285         0.613262         0.163179
 H         3.207721         2.315591         2.197955
 H         0.745400         1.673250         2.294447
 H         0.391991         1.295635        -0.613434
 H        -0.099962        -0.441703        -1.065852
 H        -0.850702         0.332208         0.395174
 H         0.763475        -1.117637         2.632500
