19
Iteration:  3207charge 0 multiplicity 1
 C         2.696558        -1.546468        -0.585217
 C         2.533631        -0.649915         0.558148
 O         3.440173        -0.735112         1.565933
 C         3.457727         0.509402         0.725039
 C         2.670643         1.590778         1.333444
 C         1.438763         1.208224         1.636227
 C         1.108569        -0.188516         1.037873
 C         0.111963        -0.175486        -0.099747
 O         0.475428        -1.017561         2.031593
 H         3.424880        -1.249936        -1.325667
 H         2.945181        -2.566276        -0.130117
 H         1.738972        -1.522373        -1.168985
 H         4.413759         0.575881         0.163474
 H         3.089739         2.569389         1.417351
 H         0.664283         1.904418         2.014811
 H         0.416836         0.279077        -1.007380
 H        -0.191493        -1.175912        -0.438198
 H        -0.818215         0.320188         0.250888
 H         1.015158        -0.937327         2.894453
