19
Iteration:  1159
 C         2.683254        -1.760203        -0.463346
 C         2.531695        -0.591511         0.431542
 O         3.282416        -0.777111         1.696603
 C         3.513942         0.352997         0.859094
 C         2.746999         1.528902         1.406284
 C         1.483715         1.154458         1.596263
 C         1.117371        -0.046869         0.952697
 C         0.093324         0.200299        -0.191319
 O         0.480486        -1.027187         1.883969
 H         1.979516        -2.549727        -0.071804
 H         2.442162        -1.606651        -1.562749
 H         3.678995        -2.152045        -0.438688
 H         4.519065         0.488137         0.451162
 H         3.159897         2.463754         1.662033
 H         0.759934         1.815446         2.107268
 H         0.265141         1.228443        -0.614378
 H         0.299652        -0.556388        -1.045058
 H        -0.970401         0.127637         0.190778
 H         1.172411        -1.315126         2.434581
