19
Iteration:  3049charge 0 multiplicity 1
 C         2.707249        -1.617085        -0.632038
 C         2.449026        -0.590811         0.397609
 O         3.399076        -0.770132         1.583330
 C         3.474566         0.449649         0.817808
 C         2.730901         1.515502         1.652835
 C         1.402989         1.194446         1.445248
 C         1.075992        -0.173107         0.875494
 C         0.062523        -0.228939        -0.251898
 O         0.567138        -0.761654         2.165535
 H         2.090812        -1.731922        -1.585105
 H         3.766738        -1.560358        -0.963159
 H         2.513297        -2.525314        -0.000208
 H         4.395479         0.676697         0.313557
 H         3.093047         2.174693         2.433832
 H         0.682413         1.654619         2.157348
 H         0.465761         0.402313        -1.027012
 H        -0.108512        -1.290204        -0.385168
 H        -0.907344         0.041090         0.133387
 H         1.269671        -0.787006         2.774148
