19
Iteration:  2503charge 0 multiplicity 1
 C         2.615635        -1.572563        -0.639740
 C         2.486486        -0.647406         0.521374
 O         3.305826        -0.938009         1.730379
 C         3.496481         0.411050         0.949745
 C         2.747027         1.594288         1.631067
 C         1.417398         1.403449         1.488026
 C         1.098838        -0.113384         0.859987
 C         0.219384        -0.191633        -0.276642
 O         0.513551        -0.892918         1.900120
 H         1.575757        -1.647171        -1.029796
 H         3.283133        -1.268260        -1.444281
 H         2.873924        -2.547620        -0.134213
 H         4.412661         0.282211         0.373156
 H         3.309261         2.557413         1.891948
 H         0.767955         1.956736         2.192251
 H         0.766341         0.087759        -1.241548
 H        -0.069694        -1.235368        -0.262791
 H        -0.616981         0.493922        -0.051373
 H         1.168713        -0.858342         2.711226
