19
Iteration:  3511
 C         2.812699        -1.665546        -0.569450
 C         2.593106        -0.621178         0.448528
 O         3.516742        -0.734856         1.622312
 C         3.470169         0.497515         0.719344
 C         2.708490         1.547191         1.380908
 C         1.400498         1.248363         1.576189
 C         1.015036        -0.180220         1.032952
 C        -0.012300         0.015372        -0.043845
 O         0.403189        -1.074515         1.999272
 H         1.994014        -2.037982        -1.068456
 H         3.661856        -1.552648        -1.316924
 H         3.077399        -2.569694        -0.010794
 H         4.352603         0.754900         0.179758
 H         3.162800         2.540740         1.499079
 H         0.596556         1.875954         2.023999
 H         0.496798         0.228973        -0.945320
 H        -0.564194        -0.889629        -0.326315
 H        -0.782958         0.784684         0.219072
 H         0.994819        -1.152086         2.763203
