19
Iteration:   609
 C         2.578637        -1.662156        -0.530554
 C         2.485946        -0.659947         0.601547
 O         3.252028        -0.825866         1.829534
 C         3.532715         0.318704         0.969012
 C         2.777195         1.601847         1.142285
 C         1.535551         1.274410         1.628301
 C         1.140810        -0.122793         0.989692
 C         0.169150         0.202837        -0.201443
 O         0.477607        -1.095564         1.811079
 H         1.953738        -2.534598        -0.240949
 H         2.366861        -1.349177        -1.603092
 H         3.625142        -2.004694        -0.478334
 H         4.547936         0.480267         0.583936
 H         3.041089         2.697876         1.077076
 H         0.640465         1.826765         2.093966
 H        -0.613185        -0.567843        -0.370775
 H        -0.325858         1.223766        -0.339035
 H         0.833502         0.190340        -1.145244
 H         1.172464        -1.528259         2.491700
