19
Iteration:   467charge 0 multiplicity 1
 C         2.968156        -1.665931        -0.654996
 C         2.467798        -0.676619         0.443959
 O         3.177604        -0.914994         1.767803
 C         3.478616         0.252142         0.999825
 C         2.802542         1.523822         1.419287
 C         1.431756         1.334851         1.342871
 C         1.088873        -0.075403         0.904255
 C        -0.027396         0.080300        -0.047667
 O         0.499924        -0.866468         1.981455
 H         2.351502        -2.599573        -0.722255
 H         2.985805        -1.185723        -1.651753
 H         4.039424        -2.055786        -0.377586
 H         4.571890         0.395533         0.741893
 H         3.428337         2.441805         1.494867
 H         0.725426         2.159371         1.512225
 H        -0.782791        -0.773801         0.082515
 H        -0.611739         1.045262         0.218595
 H         0.267152         0.090590        -1.143526
 H         1.209370        -1.163213         2.469321
