19
Iteration:  2853
 C         2.637026        -1.699856        -0.596567
 C         2.482586        -0.689189         0.633996
 O         3.355325        -0.753036         1.703509
 C         3.421929         0.534500         0.757872
 C         2.671702         1.687245         1.229442
 C         1.452696         1.275968         1.706024
 C         1.061305        -0.117220         1.084298
 C         0.183909         0.053509        -0.189517
 O         0.588334        -1.238236         1.874877
 H         1.711720        -2.061824        -0.923727
 H         3.176078        -1.053506        -1.342105
 H         3.323949        -2.513775        -0.286288
 H         4.523259         0.431791         0.528795
 H         3.137546         2.682423         1.453846
 H         0.588155         1.881244         2.034602
 H         0.829740         0.073955        -1.044528
 H        -0.425179        -0.850967        -0.323837
 H        -0.375333         1.016186        -0.145180
 H         1.035227        -1.159397         2.787147
