19
Iteration:  4748charge 0 multiplicity 1
 C         2.851799        -1.718859        -0.655614
 C         2.512914        -0.706626         0.497088
 O         3.297131        -0.792828         1.741170
 C         3.459672         0.458286         0.717793
 C         2.706052         1.641200         1.361249
 C         1.433557         1.216674         1.474875
 C         1.064652        -0.182377         0.925451
 C        -0.069583        -0.092480        -0.086678
 O         0.622793        -0.835525         2.128473
 H         3.815347        -1.530613        -1.203823
 H         3.063718        -2.722715        -0.319225
 H         2.054335        -1.576643        -1.408436
 H         4.425889         0.529977         0.162205
 H         3.246539         2.358621         1.940125
 H         0.687815         1.773776         2.046318
 H        -0.081377         0.667932        -0.881477
 H        -0.377339        -0.885843        -0.829706
 H        -0.946177         0.064161         0.582073
 H         1.442265        -0.879599         2.691213
