19
Iteration:  4414charge 0 multiplicity 1
 C         2.719875        -1.805341        -0.441169
 C         2.485229        -0.556898         0.506369
 O         3.493118        -0.714733         1.600862
 C         3.461416         0.505511         0.699268
 C         2.604078         1.631180         1.229131
 C         1.388286         1.274718         1.512263
 C         1.048984        -0.111792         1.003592
 C        -0.137517        -0.033383         0.076517
 O         0.737761        -1.162993         1.951367
 H         3.029929        -1.473022        -1.416992
 H         3.519376        -2.376226        -0.007806
 H         1.766050        -2.272741        -0.527984
 H         4.306512         0.782803         0.032000
 H         2.854245         2.663735         1.543096
 H         0.748878         2.001996         2.055309
 H         0.149469         0.750904        -0.654445
 H        -0.054376        -1.027575        -0.356963
 H        -0.926823         0.443724         0.609542
 H         1.633781        -1.170083         2.349768
