19
Iteration:  3416
 C         2.418983        -1.711476        -0.487979
 C         2.636042        -0.625842         0.509860
 O         3.425325        -0.653090         1.655062
 C         3.476705         0.539305         0.763030
 C         2.636194         1.586329         1.445719
 C         1.346742         1.235363         1.527122
 C         1.188258        -0.114669         0.944515
 C         0.092710        -0.070181        -0.057674
 O         0.705441        -1.111594         1.864769
 H         2.172454        -1.266370        -1.434959
 H         3.277184        -2.397637        -0.604695
 H         1.534285        -2.414220        -0.220884
 H         4.444658         0.602801         0.348456
 H         3.020070         2.483016         1.923596
 H         0.441694         1.668965         1.996265
 H         0.385386         0.409990        -1.016264
 H        -0.077430        -1.118195        -0.321994
 H        -0.819811         0.402018         0.299249
 H         1.553212        -1.064685         2.472487
