19
Iteration:  4803charge 0 multiplicity 1
 C         2.610980        -1.487408        -0.687562
 C         2.529828        -0.606354         0.515547
 O         3.297822        -0.955219         1.693340
 C         3.439343         0.433782         0.993317
 C         2.757973         1.652788         1.408762
 C         1.455444         1.391105         1.309312
 C         1.112484        -0.122824         0.887966
 C         0.027434        -0.432632        -0.063798
 O         0.690684        -0.803600         2.101000
 H         3.600582        -1.935617        -0.814259
 H         1.884623        -2.208565        -0.747796
 H         2.327002        -1.064318        -1.633784
 H         4.455350         0.590113         0.677790
 H         3.204893         2.597322         1.562920
 H         0.661686         2.048639         1.702465
 H         0.242141        -0.256752        -1.115551
 H        -0.392060        -1.455662         0.143785
 H        -0.949936         0.097666         0.048775
 H         1.512898        -1.076673         2.608540
