19
Iteration:  3884
 C         2.798448        -1.611157        -0.632508
 C         2.459678        -0.702113         0.571732
 O         3.502137        -0.790611         1.658737
 C         3.387822         0.396190         0.852368
 C         2.661499         1.628735         1.241331
 C         1.326095         1.293108         1.450140
 C         1.080048        -0.064441         1.057154
 C         0.003734        -0.102027        -0.038914
 O         0.601335        -1.018922         2.058190
 H         3.135291        -2.683842        -0.508355
 H         1.960317        -1.895126        -1.329342
 H         3.553891        -1.047257        -1.265013
 H         4.300941         0.482962         0.214746
 H         3.213297         2.551927         1.460894
 H         0.349211         1.889824         1.642543
 H         0.321336         0.639286        -0.818664
 H         0.050665        -1.079589        -0.577170
 H        -0.947499         0.245940         0.429934
 H         1.360633        -1.080193         2.770553
