19
Iteration:    81
 C         2.763648        -1.938182        -0.385245
 C         2.428704        -0.694198         0.481557
 O         3.395342        -0.761091         1.579977
 C         3.375840         0.452267         0.665295
 C         2.667627         1.584062         1.373391
 C         1.444720         1.195947         1.673530
 C         1.041879        -0.070325         1.005292
 C         0.301370         0.267254        -0.247319
 O         0.370654        -1.011478         1.973582
 H         2.395434        -2.835024         0.132328
 H         2.584815        -1.776705        -1.465897
 H         3.882217        -2.074287        -0.350122
 H         4.404794         0.683167         0.224860
 H         3.423614         2.251125         1.838315
 H         0.888906         1.684934         2.510498
 H         0.025146        -0.621266        -0.875062
 H        -0.641675         0.846214         0.000708
 H         1.029708         0.922042        -0.761707
 H         1.010145        -1.148865         2.582496
