19
Iteration:  2529
 C         2.705014        -1.727072        -0.541948
 C         2.484314        -0.621107         0.467012
 O         3.375589        -0.728037         1.663476
 C         3.537458         0.421224         0.921816
 C         2.725258         1.431859         1.636409
 C         1.413531         1.174198         1.563654
 C         1.075975        -0.099933         0.833412
 C         0.101821        -0.011451        -0.356440
 O         0.468508        -0.846441         1.975312
 H         1.714761        -1.833926        -0.946882
 H         3.404846        -1.348494        -1.307813
 H         3.005938        -2.698930        -0.089584
 H         4.591159         0.466211         0.515929
 H         3.266259         2.246417         2.092113
 H         0.640748         1.866775         1.981033
 H         0.578081         0.113720        -1.292845
 H        -0.370436        -0.987288        -0.249898
 H        -0.579153         0.839104        -0.270605
 H         1.277805        -1.146548         2.559570
