19
Iteration:  4107charge 0 multiplicity 1
 C         2.625260        -1.749070        -0.509283
 C         2.485419        -0.612286         0.522607
 O         3.386151        -0.715740         1.668220
 C         3.424898         0.546815         0.679569
 C         2.651330         1.732775         1.262872
 C         1.424950         1.346668         1.585305
 C         1.195112        -0.125154         1.019281
 C         0.034042        -0.107927        -0.016330
 O         0.653665        -1.176933         1.954574
 H         1.848067        -2.263349        -1.071551
 H         3.376934        -1.391508        -1.293689
 H         3.137382        -2.645620        -0.131677
 H         4.389096         0.610581         0.096639
 H         2.950792         2.727682         1.527073
 H         0.563048         1.895056         1.961726
 H         0.094066         0.657842        -0.776728
 H         0.048812        -1.169431        -0.308103
 H        -0.944612         0.002088         0.450142
 H         1.371076        -1.385778         2.551467
