19
Iteration:    87charge 0 multiplicity 1
 C         2.815291        -1.895394        -0.403268
 C         2.417577        -0.721529         0.491680
 O         3.438722        -0.797286         1.532258
 C         3.375959         0.457551         0.679485
 C         2.713641         1.556642         1.390839
 C         1.416488         1.240744         1.650679
 C         1.018105        -0.055345         1.073556
 C         0.304319         0.271013        -0.293320
 O         0.312899        -1.011478         2.010228
 H         2.444851        -2.814752         0.078682
 H         2.658372        -1.847826        -1.473513
 H         3.895832        -2.002936        -0.271959
 H         4.213478         0.675491         0.083571
 H         3.402331         2.219878         1.920192
 H         0.789674         1.807592         2.320565
 H         0.033800        -0.616835        -0.834309
 H        -0.621947         0.715729        -0.015665
 H         0.954359         0.905462        -0.878081
 H         1.012611        -1.213424         2.806837
