19
Iteration:  1043charge 0 multiplicity 1
 C         2.685338        -1.618879        -0.520350
 C         2.578081        -0.547892         0.493596
 O         3.183042        -0.949718         1.704389
 C         3.527462         0.405848         0.969001
 C         2.811931         1.545603         1.619970
 C         1.490877         1.288560         1.416224
 C         1.082029        -0.063685         0.798529
 C        -0.100662        -0.000042        -0.255000
 O         0.671010        -0.993741         1.923638
 H         1.876021        -2.333425        -0.265987
 H         2.591200        -1.246131        -1.599137
 H         3.578726        -2.113656        -0.337574
 H         4.602758         0.440394         0.688323
 H         3.207146         2.504756         1.843935
 H         0.643759         1.805938         1.904330
 H         0.157741        -0.076494        -1.284511
 H        -0.801578        -0.802132        -0.117115
 H        -0.431780         1.052679        -0.087055
 H         1.570456        -1.122398         2.439793
