19
Iteration:  2815charge 0 multiplicity 1
 C         2.691282        -1.651887        -0.524605
 C         2.578873        -0.667165         0.548152
 O         3.410453        -0.733455         1.673297
 C         3.518293         0.477578         0.812322
 C         2.716956         1.610434         1.425364
 C         1.430644         1.182305         1.470174
 C         1.126830        -0.180665         0.953406
 C         0.020794        -0.004637        -0.148874
 O         0.447655        -1.022914         1.963606
 H         2.023542        -2.605988        -0.526754
 H         2.472245        -1.156605        -1.468212
 H         3.695997        -2.059242        -0.681520
 H         4.509493         0.715430         0.528809
 H         3.203628         2.396827         1.978181
 H         0.613026         1.801054         1.882453
 H         0.478463         0.779101        -0.820998
 H        -0.343756        -0.895713        -0.701365
 H        -0.915491         0.452541         0.154647
 H         1.090248        -1.385460         2.532435
