19
Iteration:  2952charge 0 multiplicity 1
 C         2.702309        -1.597970        -0.640771
 C         2.520894        -0.680815         0.570757
 O         3.353355        -0.801527         1.694499
 C         3.387855         0.444634         0.812911
 C         2.688077         1.673458         1.295801
 C         1.435674         1.339706         1.578252
 C         1.085359        -0.186181         1.012165
 C         0.129008        -0.105233        -0.186475
 O         0.563969        -1.047521         2.025997
 H         2.629000        -0.985272        -1.596904
 H         3.676300        -2.070713        -0.529420
 H         1.858957        -2.276951        -0.702757
 H         4.412768         0.522951         0.458810
 H         3.195308         2.584099         1.568300
 H         0.741234         1.957140         2.207041
 H         0.280792         0.834220        -0.688221
 H         0.245009        -1.005547        -0.809178
 H        -0.897899        -0.163261         0.136635
 H         1.348661        -1.333003         2.618209
