19
Iteration:  4998charge 0 multiplicity 1
 C         2.732724        -1.772831        -0.464738
 C         2.462583        -0.689015         0.533385
 O         3.488670        -0.659603         1.571483
 C         3.454856         0.479498         0.634444
 C         2.754901         1.664316         1.376132
 C         1.545168         1.181308         1.648104
 C         1.110924        -0.125902         1.031888
 C         0.132588        -0.107929        -0.138888
 O         0.318191        -0.999805         2.012420
 H         3.729714        -1.583053        -0.991330
 H         2.499550        -2.762403        -0.000664
 H         2.005135        -1.697887        -1.328606
 H         4.239651         0.494824        -0.098536
 H         3.112617         2.711176         1.537953
 H         0.813016         1.835078         2.114314
 H         0.336553         0.458879        -1.031594
 H        -0.143432        -1.142712        -0.403719
 H        -0.722146         0.510237         0.028280
 H         0.458572        -0.694533         2.887290
