19
Iteration:  2127charge 0 multiplicity 1
 C         2.551461        -1.500596        -0.716662
 C         2.485049        -0.600681         0.461329
 O         3.195422        -0.945350         1.764999
 C         3.579632         0.294766         1.117656
 C         2.768509         1.548965         1.560649
 C         1.391024         1.359490         1.376674
 C         1.141240        -0.037449         0.841144
 C         0.137796        -0.201064        -0.296312
 O         0.636695        -0.844806         2.042571
 H         2.177449        -2.484464        -0.424360
 H         1.980127        -1.291804        -1.623810
 H         3.702839        -1.666718        -0.923390
 H         4.627910         0.434450         0.833120
 H         3.362395         2.372016         1.960801
 H         0.621721         2.043012         1.732040
 H         0.319684         0.581403        -1.070313
 H         0.249652        -1.201162        -0.753863
 H        -0.896253        -0.254635         0.262076
 H         1.439529        -1.115268         2.457753
