19
Iteration:  3921
 C         2.629688        -1.673249        -0.667099
 C         2.530686        -0.602086         0.479835
 O         3.368151        -0.665921         1.653650
 C         3.524812         0.489032         0.821852
 C         2.708293         1.611984         1.400104
 C         1.431177         1.227298         1.442593
 C         1.138193        -0.155900         0.992034
 C         0.044938        -0.263028        -0.129998
 O         0.548082        -0.924387         2.103852
 H         3.157417        -2.615763        -0.321127
 H         1.631212        -1.801782        -1.054948
 H         3.235829        -1.219077        -1.444269
 H         4.424700         0.689479         0.253332
 H         3.158200         2.340398         2.083418
 H         0.702237         1.757284         1.966908
 H         0.200402         0.481626        -0.925899
 H         0.042907        -1.348564        -0.394180
 H        -1.009764        -0.171786         0.333563
 H         1.265871        -1.133908         2.809456
