19
Iteration:  4950
 C         2.496968        -1.922546        -0.289825
 C         2.461805        -0.640423         0.527284
 O         3.595189        -0.676534         1.415003
 C         3.409749         0.572746         0.751907
 C         2.664669         1.644008         1.562489
 C         1.359472         1.272586         1.546680
 C         1.135158        -0.161148         1.023355
 C         0.207502         0.020662        -0.255283
 O         0.544541        -1.039268         1.986903
 H         3.372814        -1.911117        -0.936302
 H         2.536427        -2.703139         0.538064
 H         1.703762        -2.285305        -0.965337
 H         4.202747         0.848749         0.015218
 H         3.094370         2.606872         1.598516
 H         0.531517         1.904054         1.894287
 H         0.590782         0.576302        -1.115453
 H        -0.192113        -0.931599        -0.566563
 H        -0.526406         0.782096        -0.146912
 H         1.194178        -1.726285         2.352080
