19
Iteration:  1520
 C         2.764731        -1.556507        -0.606901
 C         2.540629        -0.657094         0.542605
 O         3.200903        -0.945660         1.791892
 C         3.505496         0.261089         0.945218
 C         2.851560         1.554395         1.381852
 C         1.522515         1.335502         1.458829
 C         1.105462        -0.029130         0.962796
 C         0.065033         0.040544        -0.199130
 O         0.423261        -0.972023         1.902545
 H         1.972528        -2.315676        -0.608367
 H         2.649942        -1.099863        -1.560196
 H         3.822285        -2.088075        -0.663814
 H         4.533409         0.222184         0.717354
 H         3.293796         2.577614         1.524525
 H         0.743415         2.086420         1.839798
 H         0.362739         0.699550        -1.014807
 H        -0.142819        -0.969228        -0.580794
 H        -0.855191         0.531554         0.260607
 H         0.922528        -1.220642         2.653876
