19
Iteration:   985
 C         2.758589        -1.532551        -0.482443
 C         2.416844        -0.646986         0.659630
 O         3.407727        -0.879423         1.624181
 C         3.479798         0.375414         0.831239
 C         2.764444         1.523459         1.379251
 C         1.486107         1.137213         1.631655
 C         1.058814        -0.114816         0.965873
 C         0.161465         0.058804        -0.332712
 O         0.355668        -0.947314         1.971425
 H         2.175660        -2.495269        -0.454108
 H         2.600664        -1.037676        -1.463549
 H         3.894952        -1.719903        -0.562387
 H         4.300708         0.527136         0.182338
 H         3.312404         2.470409         1.617989
 H         0.779008         1.824186         2.087479
 H         0.900124        -0.018637        -1.237817
 H        -0.870083        -0.451950        -0.153156
 H        -0.246658         1.122354        -0.239311
 H         0.978930        -1.473713         2.366835
