19
Iteration:  2888charge 0 multiplicity 1
 C         2.623220        -1.789104        -0.463562
 C         2.487419        -0.637614         0.482078
 O         3.561177        -0.640721         1.611365
 C         3.463272         0.525828         0.776367
 C         2.627742         1.546489         1.514083
 C         1.386723         1.147977         1.659088
 C         1.089438        -0.142245         0.946163
 C         0.069196         0.009756        -0.194973
 O         0.562048        -1.001326         1.874350
 H         1.705303        -1.964721        -1.109180
 H         3.444075        -1.755986        -1.138128
 H         2.747541        -2.651717         0.130205
 H         4.431554         0.854737         0.391112
 H         3.129590         2.374053         1.992446
 H         0.527149         1.797026         1.964415
 H         0.553021         0.200665        -1.172591
 H        -0.608793        -0.877115        -0.268808
 H        -0.652879         0.819666        -0.042126
 H         1.354234        -1.319617         2.345919
