19
Iteration:  4073
 C         2.601919        -1.819675        -0.452644
 C         2.507052        -0.571159         0.502749
 O         3.539982        -0.638822         1.578388
 C         3.459398         0.558890         0.646050
 C         2.642536         1.599394         1.458384
 C         1.351110         1.111377         1.564888
 C         1.092150        -0.146557         0.940907
 C         0.007643        -0.110230        -0.160079
 O         0.661762        -0.976852         2.065019
 H         1.624677        -2.369449        -0.554426
 H         2.921287        -1.314706        -1.406413
 H         3.494242        -2.310196        -0.102426
 H         4.403915         0.709383         0.027778
 H         3.073898         2.518861         1.862602
 H         0.511800         1.647334         2.064961
 H        -0.010252         0.732832        -0.809642
 H         0.047004        -0.830132        -0.993773
 H        -0.999803        -0.222877         0.307754
 H         1.332921        -1.037402         2.803219
