19
Iteration:  4895
 C         2.743044        -1.737849        -0.497281
 C         2.499441        -0.713183         0.588510
 O         3.417626        -0.596959         1.720302
 C         3.448550         0.411158         0.717867
 C         2.733921         1.680046         1.230442
 C         1.511954         1.202794         1.538330
 C         1.083968        -0.197992         0.948858
 C        -0.014362         0.019553        -0.048895
 O         0.519402        -1.107849         1.967836
 H         3.790281        -2.044771        -0.588693
 H         1.977399        -2.602152        -0.535763
 H         2.309070        -1.117399        -1.335157
 H         4.390399         0.439168         0.102919
 H         3.301544         2.578272         1.443241
 H         0.752988         1.892415         1.820096
 H         0.301481         0.690488        -0.856897
 H        -0.494433        -0.801172        -0.559891
 H        -0.903447         0.299881         0.471441
 H         1.068767        -0.902503         2.795502
