19
Iteration:   880charge 0 multiplicity 1
 C         2.719254        -1.806765        -0.559043
 C         2.552502        -0.672010         0.445599
 O         3.180355        -0.782901         1.789223
 C         3.502995         0.390265         0.898267
 C         2.812273         1.569263         1.398413
 C         1.489150         1.278900         1.515315
 C         1.162281        -0.121204         0.888788
 C         0.121120         0.177574        -0.109156
 O         0.412445        -1.002594         1.852615
 H         2.206092        -2.703125        -0.210333
 H         2.304869        -1.576553        -1.574257
 H         3.718688        -2.114816        -0.623939
 H         4.536886         0.466383         0.546711
 H         3.354352         2.411528         1.886781
 H         0.898190         2.044167         2.024646
 H        -0.540738         0.900834         0.208421
 H         0.608235         0.546826        -0.958616
 H        -0.473634        -0.690162        -0.257187
 H         1.138117        -1.377320         2.445301
