19
Iteration:  2298charge 0 multiplicity 1
 C         2.784346        -1.909107        -0.418374
 C         2.532095        -0.736243         0.520896
 O         3.332966        -0.689312         1.713506
 C         3.535923         0.460276         0.791917
 C         2.801540         1.639437         1.434320
 C         1.493129         1.194857         1.658184
 C         1.127951        -0.215249         0.895071
 C         0.011783         0.283134        -0.260647
 O         0.347067        -1.014340         1.785516
 H         2.745823        -2.870453         0.099634
 H         2.089239        -2.050313        -1.228420
 H         3.782792        -1.903781        -0.918770
 H         4.454224         0.572823         0.192454
 H         3.232989         2.310295         2.212703
 H         0.785178         1.682854         2.307154
 H         0.356161         1.312468        -0.595286
 H        -0.109788        -0.471804        -1.030238
 H        -0.845885         0.349875         0.403284
 H         0.743216        -1.144614         2.605813
