19
Iteration:  2224
 C         2.636388        -1.627022        -0.640033
 C         2.502681        -0.635585         0.512782
 O         3.310758        -0.743762         1.717313
 C         3.483570         0.361303         0.910491
 C         2.707097         1.517564         1.519089
 C         1.425709         1.194729         1.612320
 C         1.165647        -0.077803         0.888384
 C         0.156139        -0.076108        -0.230096
 O         0.523225        -0.900615         1.910511
 H         1.764616        -2.187304        -0.909298
 H         2.834419        -1.180891        -1.613800
 H         3.462323        -2.414623        -0.446749
 H         4.376272         0.386293         0.316911
 H         3.267594         2.386275         1.906502
 H         0.550959         1.719319         1.932298
 H         0.856102        -0.036202        -1.064135
 H        -0.327126        -1.033518        -0.325983
 H        -0.475118         0.819825        -0.012266
 H         0.977057        -0.897417         2.797412
