19
Iteration:  4898charge 0 multiplicity 1
 C         2.713603        -1.740690        -0.470844
 C         2.494153        -0.716312         0.594117
 O         3.410397        -0.568092         1.730834
 C         3.422719         0.411163         0.706132
 C         2.743567         1.663551         1.223310
 C         1.518404         1.181084         1.551248
 C         1.080521        -0.204531         0.939073
 C         0.024793         0.013963        -0.041467
 O         0.545116        -1.107489         1.940475
 H         3.815362        -1.978660        -0.703909
 H         1.958048        -2.622956        -0.515676
 H         2.244028        -1.154648        -1.302990
 H         4.353735         0.471541         0.127136
 H         3.303185         2.529621         1.470478
 H         0.732728         1.891584         1.865743
 H         0.257559         0.789019        -0.847000
 H        -0.468864        -0.842033        -0.543376
 H        -0.919027         0.425543         0.430887
 H         1.028236        -0.869863         2.759779
