19
Iteration:  3204charge 0 multiplicity 1
 C         2.656231        -1.548895        -0.566066
 C         2.565105        -0.672078         0.578559
 O         3.440563        -0.730977         1.566196
 C         3.444731         0.522467         0.711198
 C         2.656703         1.580254         1.348664
 C         1.429061         1.193350         1.631968
 C         1.103310        -0.183984         1.032856
 C         0.118299        -0.168210        -0.122995
 O         0.492173        -0.998528         2.024675
 H         3.443390        -1.204116        -1.346088
 H         2.932597        -2.531508        -0.213057
 H         1.732232        -1.560553        -1.123032
 H         4.360168         0.557679         0.106896
 H         3.142453         2.553441         1.448913
 H         0.690048         1.917831         2.050347
 H         0.478303         0.360847        -1.025315
 H        -0.059219        -1.219397        -0.359794
 H        -0.772937         0.227012         0.317316
 H         1.009303        -0.972619         2.819772
