19
Iteration:  4787charge 0 multiplicity 1
 C         2.776615        -1.529589        -0.711880
 C         2.569374        -0.641451         0.522417
 O         3.326063        -0.987111         1.665833
 C         3.483932         0.411671         0.932429
 C         2.718415         1.647279         1.361357
 C         1.398626         1.442572         1.270759
 C         1.071641        -0.114330         1.027918
 C        -0.111545        -0.313386        -0.042519
 O         0.620868        -0.863934         2.129754
 H         3.848099        -1.575064        -0.963230
 H         2.406347        -2.586570        -0.370374
 H         2.253794        -1.041509        -1.582598
 H         4.489405         0.393773         0.473734
 H         3.256367         2.551358         1.766871
 H         0.565404         2.142117         1.296901
 H         0.324771         0.078475        -1.010386
 H        -0.256899        -1.398616        -0.043812
 H        -0.859591         0.415883         0.257030
 H         1.494328        -1.065220         2.625454
