19
Iteration:  2811charge 0 multiplicity 1
 C         2.712719        -1.669312        -0.521453
 C         2.585506        -0.686951         0.508055
 O         3.413664        -0.764160         1.662007
 C         3.494415         0.503045         0.827950
 C         2.731894         1.590036         1.461990
 C         1.440570         1.247138         1.482304
 C         1.120178        -0.198995         0.955891
 C        -0.012179        -0.033488        -0.165410
 O         0.448097        -0.998324         1.959595
 H         2.107867        -2.554542        -0.328773
 H         2.372648        -1.164583        -1.434208
 H         3.726809        -1.975380        -0.689339
 H         4.498821         0.813186         0.428822
 H         3.246411         2.416287         1.990031
 H         0.656675         1.889473         1.915339
 H         0.397086         0.758813        -0.786736
 H        -0.263668        -0.874406        -0.859901
 H        -0.983325         0.404279         0.125463
 H         1.136020        -1.401446         2.600302
