19
Iteration:  1321charge 0 multiplicity 1
 C         2.445319        -1.604831        -0.632290
 C         2.544711        -0.592831         0.503932
 O         3.208626        -0.857575         1.848579
 C         3.534951         0.364424         1.044986
 C         2.859764         1.567442         1.565539
 C         1.446880         1.364248         1.409681
 C         1.127196        -0.108482         0.856982
 C         0.066419        -0.101219        -0.285396
 O         0.707718        -0.955497         1.853885
 H         1.798910        -2.405240        -0.251516
 H         2.066357        -1.101282        -1.565158
 H         3.323737        -2.081589        -0.862527
 H         4.615270         0.293411         0.632968
 H         3.400670         2.286208         2.228633
 H         0.621142         2.045226         1.818167
 H         0.252595         0.755697        -0.966045
 H        -0.013369        -1.045577        -0.890801
 H        -0.867674        -0.025892         0.178769
 H         1.401640        -1.242101         2.378484
