19
Iteration:  2702
 C         2.819136        -1.487630        -0.672287
 C         2.529876        -0.687464         0.601830
 O         3.220812        -0.906135         1.728324
 C         3.490780         0.422643         0.942737
 C         2.822007         1.601048         1.342653
 C         1.493480         1.336506         1.447142
 C         1.035062        -0.142054         1.009861
 C         0.030375        -0.098689        -0.191115
 O         0.489439        -1.023572         1.969344
 H         3.841313        -1.408248        -0.867241
 H         2.591185        -2.522452        -0.389964
 H         2.139606        -1.114543        -1.425502
 H         4.509255         0.580939         0.455720
 H         3.339460         2.511156         1.665294
 H         0.668283         1.970626         1.675030
 H         0.572673         0.107751        -1.086974
 H        -0.560337        -1.009831        -0.181609
 H        -0.743105         0.677575         0.026155
 H         1.183005        -1.125362         2.698995
