19
Iteration:  3596charge 0 multiplicity 1
 C         2.808019        -1.689464        -0.572598
 C         2.542116        -0.697383         0.494186
 O         3.463164        -0.764665         1.527705
 C         3.417786         0.453587         0.792011
 C         2.690134         1.541977         1.425795
 C         1.374218         1.343746         1.541813
 C         1.064677        -0.155437         0.995553
 C        -0.077385        -0.088610        -0.006550
 O         0.593374        -0.984649         1.981409
 H         3.298690        -1.101216        -1.385809
 H         3.409088        -2.595494        -0.187775
 H         1.857338        -1.968059        -1.024178
 H         4.240298         0.759271         0.206468
 H         3.121487         2.441347         1.804477
 H         0.590004         1.987728         1.961360
 H         0.149367         0.654556        -0.723355
 H        -0.133341        -1.088812        -0.461913
 H        -1.063272         0.281774         0.442968
 H         1.355126        -0.755407         2.673887
