19
Iteration:  4511
 C         2.785007        -1.590914        -0.760517
 C         2.585391        -0.672377         0.472267
 O         3.478691        -0.763733         1.608557
 C         3.443295         0.432246         0.811976
 C         2.668797         1.568368         1.373604
 C         1.357703         1.318896         1.385146
 C         1.075003        -0.139136         0.997022
 C        -0.101205        -0.269644         0.043948
 O         0.573778        -0.890751         2.195953
 H         1.883333        -1.545043        -1.409228
 H         3.590499        -1.231508        -1.412678
 H         2.904338        -2.653119        -0.457107
 H         4.327092         0.616083         0.128516
 H         3.214572         2.476577         1.600906
 H         0.588901         1.915008         1.825596
 H         0.265548        -0.103030        -1.072741
 H        -0.459112        -1.337830         0.237830
 H        -0.680821         0.558743         0.544873
 H         1.321423        -0.858851         2.763284
