19
Iteration:  4168
 C         2.747600        -1.698058        -0.573504
 C         2.512632        -0.649597         0.466621
 O         3.482805        -0.693403         1.524205
 C         3.410426         0.488876         0.683966
 C         2.588418         1.596818         1.428844
 C         1.332857         1.261245         1.585718
 C         1.148300        -0.185851         0.995557
 C         0.005311        -0.197459        -0.037782
 O         0.645085        -0.946373         2.078376
 H         2.419052        -1.102993        -1.452819
 H         3.788311        -1.921513        -0.628018
 H         2.160326        -2.542063        -0.335935
 H         4.208610         0.787471        -0.051718
 H         3.107430         2.484807         1.774722
 H         0.496457         1.816887         2.058876
 H         0.381854        -0.059775        -1.054159
 H        -0.478826        -1.208550        -0.102145
 H        -0.762946         0.566201         0.263650
 H         1.253933        -0.841957         2.789366
