19
Iteration:  2409
 C         2.768582        -1.715349        -0.601340
 C         2.477840        -0.639475         0.467547
 O         3.265320        -0.883424         1.667683
 C         3.500459         0.399349         0.972383
 C         2.781182         1.604785         1.604059
 C         1.459003         1.388108         1.528894
 C         1.076732        -0.082081         0.869716
 C         0.050509        -0.061912        -0.230475
 O         0.514103        -0.960175         1.931991
 H         1.859413        -2.224028        -0.755493
 H         3.143556        -1.237939        -1.524681
 H         3.538235        -2.331686        -0.044379
 H         4.515133         0.594823         0.596919
 H         3.376511         2.424009         2.020475
 H         0.745350         2.250688         1.658867
 H         0.302615         0.537070        -1.110218
 H        -0.186253        -1.070172        -0.658313
 H        -0.921698         0.371486         0.089873
 H         1.338469        -1.406511         2.303691
