19
Iteration:  2276
 C         2.620600        -1.806114        -0.376797
 C         2.474215        -0.643630         0.516297
 O         3.427295        -0.766794         1.714410
 C         3.483327         0.426124         0.849440
 C         2.709742         1.520114         1.455656
 C         1.376146         1.206710         1.581416
 C         1.132144        -0.089865         0.928277
 C         0.202713         0.233114        -0.231310
 O         0.480602        -1.053073         1.745269
 H         2.185742        -2.716144         0.065239
 H         2.012771        -1.663294        -1.272182
 H         3.590153        -2.079395        -0.787591
 H         4.528253         0.505650         0.511976
 H         3.131709         2.536878         1.502054
 H         0.662425         1.920927         1.946678
 H         0.417871         1.213456        -0.750707
 H         0.226329        -0.708321        -0.727422
 H        -0.719528         0.292036         0.346004
 H         1.011678        -1.211030         2.627959
