19
Iteration:  2614charge 0 multiplicity 1
 C         2.567825        -1.738466        -0.476631
 C         2.514002        -0.637641         0.604486
 O         3.391101        -0.734697         1.761047
 C         3.497343         0.417739         0.814870
 C         2.713631         1.600719         1.427222
 C         1.424215         1.257407         1.599620
 C         1.158848        -0.106189         0.974535
 C         0.192117         0.066147        -0.256675
 O         0.476790        -1.067997         1.797801
 H         2.476075        -1.283079        -1.437199
 H         3.455566        -2.394037        -0.574147
 H         1.703354        -2.476248        -0.450248
 H         4.464082         0.545395         0.230795
 H         3.212485         2.538112         1.623415
 H         0.677183         1.831410         2.217590
 H         0.354615         0.929458        -0.864526
 H         0.231647        -0.705480        -1.030949
 H        -0.817616         0.061733         0.190134
 H         1.101675        -1.387144         2.406619
