19
Iteration:  1918charge 0 multiplicity 1
 C         2.768020        -1.517838        -0.790472
 C         2.584786        -0.637292         0.517575
 O         3.192781        -0.947211         1.913451
 C         3.543285         0.323922         1.041672
 C         2.806933         1.543818         1.385227
 C         1.474271         1.227215         1.380532
 C         1.095962        -0.130287         0.899715
 C         0.008255         0.011288        -0.204162
 O         0.488620        -0.897637         2.013784
 H         2.317328        -2.482791        -0.997550
 H         2.413254        -0.878573        -1.640563
 H         3.812108        -1.683182        -0.882034
 H         4.593701         0.226679         0.725927
 H         3.258180         2.539772         1.578481
 H         0.693990         1.888517         1.723694
 H         0.473803         0.327947        -1.152636
 H        -0.502864        -0.963100        -0.379739
 H        -0.801726         0.643654         0.170854
 H         1.017076        -0.826249         2.767237
