19
Iteration:  2265charge 0 multiplicity 1
 C         2.512357        -1.738431        -0.393428
 C         2.511575        -0.608058         0.584108
 O         3.427900        -0.831294         1.666165
 C         3.531567         0.376963         0.921017
 C         2.683349         1.593361         1.411628
 C         1.417251         1.296653         1.610622
 C         1.118089        -0.099604         0.987406
 C         0.209945         0.163845        -0.315750
 O         0.505437        -1.112232         1.796844
 H         1.993333        -2.595193         0.065933
 H         2.103467        -1.493623        -1.372528
 H         3.570195        -1.955254        -0.448841
 H         4.416255         0.624677         0.311545
 H         3.084494         2.581805         1.660661
 H         0.586293         1.939168         1.848490
 H         0.565321         0.936955        -1.051173
 H         0.073445        -0.667708        -0.991972
 H        -0.824652         0.393044         0.009169
 H         1.251228        -1.357949         2.393312
