19
Iteration:  1228charge 0 multiplicity 1
 C         2.699075        -1.687596        -0.529390
 C         2.517452        -0.636810         0.531685
 O         3.440944        -0.848793         1.607632
 C         3.507834         0.437942         0.897693
 C         2.755224         1.560410         1.538318
 C         1.471534         1.230994         1.581406
 C         1.113839        -0.109382         0.933839
 C         0.101061         0.066072        -0.284578
 O         0.337777        -0.951668         1.938913
 H         2.040745        -2.551187        -0.259865
 H         2.371180        -1.346287        -1.537593
 H         3.767016        -2.053473        -0.667884
 H         4.479755         0.608564         0.430797
 H         3.234264         2.532199         1.837434
 H         0.663058         1.625981         2.152921
 H         0.537974        -0.193377        -1.291193
 H        -0.610622        -0.831005        -0.202318
 H        -0.456469         1.142635        -0.246939
 H         1.079377        -1.332184         2.511346
