19
Iteration:  2418
 C         2.852566        -1.687373        -0.584676
 C         2.554295        -0.540860         0.418463
 O         3.241491        -0.862735         1.651657
 C         3.464984         0.351177         1.019014
 C         2.780226         1.480160         1.536765
 C         1.446742         1.430083         1.501974
 C         1.085447        -0.115626         0.866752
 C        -0.044165        -0.002976        -0.204340
 O         0.493066        -0.949407         1.970182
 H         2.082823        -2.319428        -0.892604
 H         3.429376        -1.496820        -1.459086
 H         3.545605        -2.425218        -0.105790
 H         4.472673         0.410431         0.692812
 H         3.421197         2.333334         1.842142
 H         0.652247         2.101926         1.839979
 H         0.232269         0.649910        -1.026636
 H        -0.058862        -0.997851        -0.562579
 H        -0.990706         0.259429         0.206374
 H         1.329625        -1.359454         2.367529
