19
Iteration:   239
 C         2.733100        -1.500423        -0.594651
 C         2.462265        -0.696109         0.607399
 O         3.347472        -0.981309         1.707232
 C         3.523224         0.266197         0.879941
 C         2.913501         1.517772         1.450363
 C         1.524948         1.402346         1.378243
 C         1.074498        -0.045887         0.939981
 C        -0.009182        -0.166339        -0.191077
 O         0.390642        -0.792992         2.032237
 H         1.918088        -2.116412        -0.992151
 H         2.824783        -0.762561        -1.386737
 H         3.653163        -2.167659        -0.625097
 H         4.345807         0.268503         0.193882
 H         3.510512         2.447654         1.688122
 H         0.864476         2.283063         1.603416
 H         0.070120        -1.233057        -0.464956
 H        -1.025573        -0.194151         0.234696
 H         0.000425         0.594433        -0.975923
 H         0.917752        -0.931399         2.757715
