19
Iteration:   321charge 0 multiplicity 1
 C         2.823121        -1.907242        -0.286563
 C         2.529138        -0.601499         0.413553
 O         3.344458        -0.843300         1.616641
 C         3.559498         0.320086         0.807193
 C         2.870991         1.437436         1.444380
 C         1.462999         1.361030         1.570630
 C         1.040355         0.008508         0.864310
 C        -0.074237         0.245453        -0.103043
 O         0.387315        -0.944034         1.794090
 H         2.624098        -2.707982         0.438430
 H         2.138977        -2.079575        -1.164794
 H         3.833679        -1.941418        -0.585933
 H         4.566350         0.377788         0.410130
 H         3.414989         2.343357         1.803196
 H         0.772052         2.099696         2.096210
 H        -0.391954        -0.747704        -0.405322
 H        -0.799289         0.721189         0.529252
 H         0.181070         0.735015        -1.054901
 H         0.965230        -1.432392         2.321900
