19
Iteration:  4149
 C         2.729586        -1.684738        -0.646492
 C         2.540087        -0.639216         0.490566
 O         3.460328        -0.606016         1.630749
 C         3.450810         0.536480         0.729699
 C         2.651022         1.637723         1.349693
 C         1.416515         1.151739         1.419720
 C         1.010370        -0.234765         1.020431
 C        -0.061806        -0.047534        -0.069118
 O         0.661100        -1.128292         2.171387
 H         2.005016        -1.601633        -1.579982
 H         3.876405        -1.677934        -0.783765
 H         2.601625        -2.679561        -0.111296
 H         4.476739         0.636248         0.218570
 H         3.079738         2.559636         1.646551
 H         0.717368         1.809537         1.934081
 H         0.345274         0.289620        -1.051103
 H        -0.787286        -0.936644        -0.190705
 H        -0.833949         0.777867         0.177598
 H         1.302626        -0.933965         2.871910
