19
Iteration:   858
 C         2.665066        -1.604740        -0.521103
 C         2.456221        -0.708349         0.638991
 O         3.346740        -0.919903         1.737381
 C         3.571162         0.297912         0.966185
 C         2.785937         1.554898         1.303766
 C         1.451296         1.236763         1.545993
 C         1.077613        -0.119664         0.962133
 C         0.129006         0.146769        -0.295748
 O         0.465486        -0.931927         1.912133
 H         2.163933        -2.566345        -0.499243
 H         2.220258        -1.105280        -1.406400
 H         3.674718        -1.836328        -0.724128
 H         4.434338         0.349436         0.322091
 H         3.280528         2.531301         1.260271
 H         0.666131         1.913667         1.842188
 H        -0.847062         0.284276         0.024807
 H         0.477947         0.971636        -0.839947
 H         0.075128        -0.748856        -0.849162
 H         0.782639        -0.684606         2.781055
