19
Iteration:  3141
 C         2.733865        -1.783908        -0.425538
 C         2.481000        -0.594021         0.448963
 O         3.404232        -0.723871         1.605751
 C         3.414689         0.464957         0.739269
 C         2.629344         1.637672         1.377504
 C         1.401749         1.276678         1.648706
 C         1.157537        -0.185447         0.939632
 C         0.010260         0.028849        -0.054651
 O         0.634369        -1.081941         1.837119
 H         3.134997        -1.585563        -1.449913
 H         3.551334        -2.396965         0.031778
 H         1.856509        -2.425641        -0.553756
 H         4.401041         0.726036         0.232688
 H         3.117919         2.481466         1.859773
 H         0.624678         1.701805         2.322518
 H         0.309777         0.633238        -0.899594
 H        -0.481508        -0.902662        -0.328601
 H        -0.729886         0.614229         0.524779
 H         1.218821        -0.958364         2.574163
