19
Iteration:  2269charge 0 multiplicity 1
 C         2.537605        -1.753145        -0.374729
 C         2.490430        -0.611074         0.566385
 O         3.431629        -0.811123         1.674681
 C         3.525918         0.375089         0.897773
 C         2.688729         1.562003         1.419262
 C         1.400933         1.279343         1.610863
 C         1.123793        -0.115948         0.977105
 C         0.210016         0.216271        -0.306111
 O         0.502940        -1.092021         1.779472
 H         2.038500        -2.632916         0.010676
 H         2.047562        -1.593622        -1.339628
 H         3.647159        -1.980286        -0.554746
 H         4.452488         0.627830         0.425142
 H         3.025045         2.597190         1.608823
 H         0.586972         1.960345         1.848351
 H         0.514243         0.945433        -1.023734
 H         0.141499        -0.709186        -0.927525
 H        -0.770085         0.254272         0.230278
 H         1.196394        -1.320562         2.466945
