19
Iteration:  1198charge 0 multiplicity 1
 C         2.395203        -1.726227        -0.456807
 C         2.500831        -0.596434         0.521266
 O         3.391648        -0.825631         1.765469
 C         3.486291         0.422121         0.886732
 C         2.758413         1.580926         1.497419
 C         1.396862         1.345404         1.525394
 C         1.145341        -0.031212         0.913239
 C         0.215591         0.125182        -0.229344
 O         0.620916        -1.183528         1.751698
 H         1.721254        -2.408491         0.005937
 H         1.928202        -1.374230        -1.316315
 H         3.375699        -2.257159        -0.710347
 H         4.467635         0.523067         0.481152
 H         3.255138         2.434856         2.028766
 H         0.538792         1.870603         1.955220
 H         0.703716         0.289800        -1.196357
 H        -0.196693        -0.839506        -0.301707
 H        -0.581159         0.881215        -0.112230
 H         1.369226        -1.281464         2.490881
