19
Iteration:  3326charge 0 multiplicity 1
 C         2.648827        -1.473870        -0.676865
 C         2.519203        -0.659602         0.596184
 O         3.557984        -0.750312         1.599157
 C         3.576176         0.448241         0.796267
 C         2.651062         1.530806         1.346373
 C         1.345386         1.237617         1.486330
 C         1.027376        -0.222403         1.015080
 C        -0.010870        -0.256577        -0.134357
 O         0.552070        -0.877753         2.139802
 H         3.564875        -1.998108        -0.701770
 H         1.827799        -2.294134        -0.672189
 H         2.513492        -0.827884        -1.604567
 H         4.510824         0.620316         0.199765
 H         3.012872         2.543556         1.648780
 H         0.736239         1.908912         2.086192
 H         0.324090         0.470892        -0.816616
 H        -0.126062        -1.249678        -0.599489
 H        -0.998120         0.016958         0.321198
 H         1.352919        -1.258040         2.670526
