19
Iteration:  3954
 C         2.762142        -1.688454        -0.492664
 C         2.503047        -0.583114         0.463846
 O         3.388066        -0.825972         1.551890
 C         3.438353         0.500359         0.828294
 C         2.646919         1.566255         1.440724
 C         1.346056         1.297654         1.489696
 C         1.084000        -0.075216         0.950738
 C        -0.070498        -0.145151        -0.147619
 O         0.758248        -0.949036         2.069189
 H         3.296967        -2.582451        -0.075697
 H         1.851262        -2.117396        -0.988270
 H         3.369315        -1.268094        -1.300655
 H         4.314849         0.707410         0.189249
 H         3.086852         2.344724         2.053614
 H         0.562519         1.847341         1.943981
 H         0.114248        -0.205720        -1.251909
 H        -0.473993        -1.184390        -0.026783
 H        -0.974302         0.536844        -0.009870
 H         1.557370        -1.007971         2.630010
