19
Iteration:  4986charge 0 multiplicity 1
 C         2.627432        -1.816149        -0.429346
 C         2.518524        -0.671550         0.586862
 O         3.599814        -0.589344         1.560861
 C         3.425981         0.500447         0.628504
 C         2.751689         1.575172         1.432310
 C         1.487435         1.155769         1.684375
 C         1.083402        -0.193935         0.978339
 C         0.060174        -0.062078        -0.274963
 O         0.355316        -0.905518         1.988990
 H         3.667839        -1.779519        -0.918133
 H         2.760864        -2.818966         0.106232
 H         1.800549        -1.822650        -1.169102
 H         4.212485         0.685439        -0.075433
 H         3.163530         2.560191         1.701150
 H         0.748967         1.529453         2.422520
 H         0.615717         0.280917        -1.133753
 H        -0.364217        -1.061053        -0.474419
 H        -0.751444         0.421221         0.188950
 H         0.970660        -0.788000         2.775653
