19
Iteration:   175
 C         2.707969        -1.685168        -0.561509
 C         2.479646        -0.593849         0.460242
 O         3.158083        -1.005015         1.704531
 C         3.449648         0.295711         0.919778
 C         2.768844         1.558809         1.477912
 C         1.390029         1.447274         1.368366
 C         1.072322         0.007030         0.915294
 C         0.057601        -0.020892        -0.165069
 O         0.747443        -0.931620         2.007950
 H         2.045620        -2.488796        -0.345575
 H         2.739127        -1.220850        -1.487158
 H         3.736707        -2.101885        -0.393428
 H         4.458189         0.369111         0.522836
 H         3.260901         2.412468         2.052406
 H         0.547992         2.051512         1.852410
 H        -0.283086        -1.004479        -0.474300
 H        -0.808414         0.566457         0.097338
 H         0.492307         0.486752        -0.985364
 H         1.763488        -1.061938         2.279772
