19
Iteration:  3967charge 0 multiplicity 1
 C         2.748295        -1.654375        -0.558040
 C         2.498432        -0.554819         0.464990
 O         3.373189        -0.792162         1.561036
 C         3.525552         0.504419         0.836078
 C         2.658979         1.632253         1.442464
 C         1.335414         1.229054         1.383088
 C         1.027050        -0.191288         0.935911
 C        -0.080549        -0.146407        -0.060729
 O         0.713952        -0.992996         2.098485
 H         3.207869        -2.325057         0.096941
 H         1.773609        -2.120792        -0.962372
 H         3.531083        -1.477122        -1.341479
 H         4.607255         0.512704         0.439614
 H         2.952193         2.576339         1.921489
 H         0.606387         1.914763         1.912809
 H         0.618893         0.017447        -0.967909
 H        -0.830999        -0.936858         0.052072
 H        -0.536199         0.843788         0.019636
 H         1.676684        -1.136330         2.446216
