19
Iteration:  3205
 C         2.669736        -1.546948        -0.571223
 C         2.555987        -0.665980         0.572633
 O         3.439056        -0.732402         1.564732
 C         3.449115         0.519017         0.715831
 C         2.660204         1.583485         1.343779
 C         1.434020         1.197961         1.633971
 C         1.104516        -0.185833         1.034085
 C         0.116273        -0.170579        -0.115437
 O         0.486179        -1.004819         2.026660
 H         3.440011        -1.216556        -1.347991
 H         2.939686        -2.544693        -0.177916
 H         1.732925        -1.541838        -1.140249
 H         4.384912         0.560237         0.123275
 H         3.124608         2.553043         1.433151
 H         0.676863         1.922345         2.039010
 H         0.454246         0.325995        -1.015517
 H        -0.103606        -1.200751        -0.387939
 H        -0.783014         0.255832         0.295997
 H         1.013202        -0.960438         2.852360
