19
Iteration:  2798charge 0 multiplicity 1
 C         2.763727        -1.726689        -0.568194
 C         2.533216        -0.578770         0.510704
 O         3.452491        -0.836751         1.620078
 C         3.449612         0.443295         0.867116
 C         2.750486         1.549940         1.582787
 C         1.404224         1.367310         1.540310
 C         1.033108        -0.126374         0.914195
 C         0.003183        -0.080227        -0.234688
 O         0.495801        -0.941599         1.954439
 H         2.456743        -2.597599        -0.069401
 H         2.144630        -1.713471        -1.506719
 H         3.860327        -1.868084        -0.793891
 H         4.329772         0.526375         0.165592
 H         3.234773         2.500468         1.841340
 H         0.685293         1.984207         2.040809
 H         0.112087         0.797608        -0.846647
 H         0.040101        -1.028815        -0.778354
 H        -0.962903        -0.119340         0.343634
 H         1.236186        -1.073827         2.562475
