19
Iteration:  3520
 C         2.744263        -1.681690        -0.529641
 C         2.478062        -0.658495         0.515650
 O         3.507819        -0.692244         1.570263
 C         3.431736         0.454141         0.788297
 C         2.708579         1.588597         1.431385
 C         1.409079         1.300303         1.501670
 C         1.101793        -0.173061         1.049335
 C         0.039278        -0.002276        -0.045591
 O         0.499982        -1.126125         1.933908
 H         1.763952        -1.788386        -1.138904
 H         3.501867        -1.523935        -1.367507
 H         2.880153        -2.630102        -0.036771
 H         4.377469         0.618390         0.261776
 H         3.096902         2.610469         1.672359
 H         0.512213         1.833786         1.808658
 H         0.554440         0.319803        -0.925362
 H        -0.470456        -0.975486        -0.214786
 H        -0.774956         0.778215         0.136162
 H         1.045933        -0.950168         2.701619
