19
Iteration:  2133
 C         2.600831        -1.479848        -0.747118
 C         2.488386        -0.579185         0.482444
 O         3.126854        -0.963441         1.780868
 C         3.578425         0.374025         1.138074
 C         2.782168         1.495350         1.507559
 C         1.455990         1.294706         1.363046
 C         1.152619        -0.043057         0.848964
 C         0.067945        -0.209105        -0.271118
 O         0.659840        -0.836713         2.054146
 H         2.125825        -2.465938        -0.478833
 H         1.982377        -1.262978        -1.649021
 H         3.619984        -1.620747        -0.875700
 H         4.684475         0.402352         0.988188
 H         3.280482         2.415045         1.815755
 H         0.689331         1.954072         1.800646
 H         0.199711         0.557650        -1.046712
 H         0.325454        -1.103962        -0.838396
 H        -0.943784        -0.205381        -0.013056
 H         1.488405        -0.968907         2.581186
