19
Iteration:   738
 C         2.631926        -1.610793        -0.559988
 C         2.631510        -0.705234         0.594258
 O         3.194442        -0.988691         1.854322
 C         3.608658         0.368494         1.086503
 C         2.801242         1.556298         1.162020
 C         1.470064         1.320382         1.432737
 C         1.136051        -0.045385         0.921406
 C        -0.012816         0.100111        -0.207718
 O         0.509409        -0.943848         1.881667
 H         1.889352        -2.372789        -0.533316
 H         2.473000        -1.003351        -1.427204
 H         3.570614        -2.130813        -0.766397
 H         4.672616         0.248909         0.978944
 H         3.374642         2.495421         1.299116
 H         0.679560         1.935826         1.883354
 H         0.289068        -0.475351        -1.024395
 H        -0.921928        -0.304074         0.163507
 H        -0.137270         1.084916        -0.574169
 H         1.206112        -1.236961         2.577077
