19
Iteration:  2310charge 0 multiplicity 1
 C         2.889073        -1.897258        -0.383885
 C         2.478000        -0.694004         0.531594
 O         3.381397        -0.715005         1.647861
 C         3.491386         0.437363         0.800926
 C         2.791030         1.561269         1.448606
 C         1.570881         1.149897         1.647388
 C         1.021876        -0.075891         0.893028
 C         0.023247         0.274858        -0.268970
 O         0.275538        -1.028775         1.841887
 H         3.002663        -2.770636         0.218693
 H         2.112815        -1.968264        -1.111339
 H         3.876009        -1.557245        -0.857684
 H         4.506029         0.377892         0.477687
 H         3.374317         2.447205         1.817289
 H         0.934875         1.586222         2.378606
 H         0.185692         1.200822        -0.907467
 H        -0.215290        -0.493047        -1.005132
 H        -0.972313         0.442470         0.198979
 H         1.049312        -1.307368         2.422042
