19
Iteration:  1606
 C         2.760487        -1.666221        -0.592544
 C         2.493090        -0.589495         0.430720
 O         3.183707        -0.942178         1.685971
 C         3.558062         0.351299         1.006871
 C         2.808593         1.408727         1.706864
 C         1.516395         1.354397         1.429537
 C         1.176971         0.059229         0.787385
 C        -0.078132        -0.159383        -0.221320
 O         0.535625        -0.789182         1.885342
 H         2.126324        -2.504273        -0.349940
 H         2.535066        -1.352256        -1.589019
 H         3.848042        -1.863798        -0.490932
 H         4.539928         0.553834         0.594875
 H         3.213343         2.091871         2.463441
 H         0.865304         2.200708         1.809192
 H         0.055835         0.214088        -1.201072
 H        -0.415493        -1.167789        -0.113357
 H        -0.887153         0.500678         0.108568
 H         1.340267        -0.939787         2.549105
