19
Iteration:  1557
 C         2.697786        -1.387341        -0.729808
 C         2.464830        -0.721427         0.549840
 O         3.306760        -0.993973         1.804368
 C         3.495744         0.227569         0.955760
 C         2.790053         1.471133         1.517550
 C         1.432421         1.277485         1.327313
 C         1.114133        -0.174021         0.967160
 C         0.238916        -0.092711        -0.336935
 O         0.395528        -0.684004         2.127127
 H         2.049251        -2.328835        -0.655306
 H         2.181852        -0.690066        -1.493125
 H         3.738108        -1.644435        -1.070392
 H         4.552179         0.291325         0.560827
 H         3.320626         2.320951         1.891292
 H         0.611353         1.850757         1.642184
 H         0.686960         0.656616        -1.079398
 H        -0.010683        -1.077151        -0.792588
 H        -0.774500         0.299296        -0.019704
 H         1.155722        -0.911404         2.614498
