19
Iteration:  2144charge 0 multiplicity 1
 C         2.728240        -1.473835        -0.717463
 C         2.614015        -0.603935         0.514446
 O         3.057429        -0.964935         1.756386
 C         3.512131         0.304452         1.078271
 C         2.806897         1.549064         1.470090
 C         1.495476         1.265516         1.374107
 C         1.039013        -0.112629         0.905171
 C         0.004456        -0.187993        -0.244586
 O         0.679181        -0.799277         2.026412
 H         2.205011        -2.446777        -0.525426
 H         2.398653        -0.760054        -1.504639
 H         3.655567        -1.727649        -1.119354
 H         4.616549         0.263801         0.895287
 H         3.094656         2.498882         1.896659
 H         0.726280         1.979212         1.744352
 H         0.143209         0.692440        -0.873907
 H         0.081508        -1.141274        -0.778900
 H        -0.984461        -0.175335         0.116487
 H         1.430114        -0.715047         2.568990
