19
Iteration:   286
 C         2.532084        -1.792223        -0.591673
 C         2.491168        -0.762109         0.510500
 O         3.222880        -0.812998         1.717268
 C         3.471851         0.348649         0.919979
 C         2.770504         1.548901         1.544045
 C         1.481313         1.291234         1.456080
 C         1.155245        -0.100512         0.874694
 C         0.158416         0.075322        -0.306831
 O         0.632976        -0.845983         2.042874
 H         2.260722        -2.781606        -0.289270
 H         1.863960        -1.472196        -1.385025
 H         3.508278        -1.884374        -1.030459
 H         4.527064         0.443749         0.515689
 H         3.377969         2.364032         1.853195
 H         0.648102         1.878228         1.818697
 H        -0.540871        -0.700622        -0.475881
 H        -0.477494         0.878540         0.027512
 H         0.592224         0.534450        -1.154573
 H         1.378340        -0.896871         2.580459
