19
Iteration:  2867
 C         2.642509        -1.684140        -0.461483
 C         2.470999        -0.585530         0.521966
 O         3.334402        -0.742146         1.619012
 C         3.496063         0.525104         0.766774
 C         2.668284         1.678107         1.400382
 C         1.427303         1.268424         1.561575
 C         1.124875        -0.172853         1.028452
 C         0.225477         0.050070        -0.175227
 O         0.527173        -1.257867         1.937693
 H         1.678670        -1.980676        -0.995291
 H         3.238274        -1.483329        -1.314384
 H         3.060036        -2.528025        -0.017199
 H         4.256467         0.699291         0.025879
 H         3.010546         2.675777         1.639637
 H         0.790875         1.879159         2.269645
 H         0.819142         0.003829        -1.135569
 H        -0.533149        -0.784264        -0.178661
 H        -0.352776         0.976870        -0.065742
 H         1.139883        -1.281587         2.653274
