19
Iteration:  4595
 C         2.596504        -1.731451        -0.556050
 C         2.619434        -0.621545         0.465179
 O         3.494011        -0.738154         1.634851
 C         3.504425         0.544659         0.706504
 C         2.657026         1.639447         1.351082
 C         1.399350         1.168970         1.486261
 C         1.116561        -0.153326         1.019926
 C         0.008200        -0.144409        -0.039354
 O         0.544355        -0.953546         2.039097
 H         2.772368        -2.604848         0.121149
 H         1.602613        -1.638802        -1.046741
 H         3.340397        -1.616426        -1.385591
 H         4.510239         0.634013         0.295470
 H         3.068479         2.526009         1.805975
 H         0.765080         1.809861         2.054194
 H         0.035491         0.701143        -0.731516
 H        -0.015956        -1.097680        -0.560667
 H        -1.063555        -0.010569         0.145046
 H         1.121726        -0.929186         2.812402
