19
Iteration:  4891
 C         2.759639        -1.727900        -0.539701
 C         2.512545        -0.705973         0.573881
 O         3.427213        -0.649702         1.707193
 C         3.494074         0.424288         0.730831
 C         2.725987         1.672459         1.235441
 C         1.491892         1.246447         1.507901
 C         1.099548        -0.188214         0.985520
 C        -0.070368         0.023454        -0.069699
 O         0.488386        -1.098937         2.011415
 H         3.753720        -2.141704        -0.449152
 H         2.121965        -2.531495        -0.477723
 H         2.540252        -1.144040        -1.428911
 H         4.375561         0.412007         0.116582
 H         3.231301         2.670842         1.410609
 H         0.678655         1.918079         1.858924
 H         0.340579         0.622351        -0.860844
 H        -0.428850        -0.902084        -0.605454
 H        -0.926992         0.283093         0.599600
 H         1.066988        -1.012755         2.748918
