19
Iteration:   295
 C         2.599048        -1.852157        -0.501233
 C         2.455629        -0.692839         0.521154
 O         3.293650        -0.846031         1.699170
 C         3.464129         0.361977         0.908117
 C         2.815713         1.525587         1.531485
 C         1.472621         1.278474         1.474648
 C         1.083606        -0.125460         0.797268
 C         0.034449         0.191921        -0.262765
 O         0.653116        -0.857417         1.971218
 H         2.456657        -2.801566        -0.010059
 H         1.989005        -1.791513        -1.367333
 H         3.658543        -1.810475        -0.893583
 H         4.511150         0.361350         0.490959
 H         3.243438         2.378120         2.007617
 H         0.722288         1.887937         1.902791
 H        -0.552497        -0.693469        -0.544603
 H        -0.600001         0.994520         0.104150
 H         0.575837         0.500493        -1.139089
 H         1.304118        -0.888545         2.596838
