19
Iteration:  3795
 C         2.481606        -1.678668        -0.551716
 C         2.492809        -0.575600         0.549417
 O         3.528818        -0.665514         1.556216
 C         3.499192         0.536618         0.804899
 C         2.620668         1.595418         1.367546
 C         1.331039         1.234822         1.499047
 C         1.157478        -0.174138         1.047922
 C         0.097708        -0.162183        -0.203685
 O         0.646562        -1.092964         2.110187
 H         1.514268        -2.034485        -0.496454
 H         2.700043        -1.195303        -1.571165
 H         3.315151        -2.372046        -0.292005
 H         4.348842         0.822353         0.074612
 H         3.093743         2.560393         1.520384
 H         0.531276         1.665863         2.068422
 H         0.461400         0.580984        -0.985306
 H        -0.152460        -1.080119        -0.659597
 H        -0.678221         0.297100         0.316111
 H         1.461409        -1.292120         2.702596
