19
Iteration:  4052
 C         2.681397        -1.816745        -0.530147
 C         2.539988        -0.683811         0.496840
 O         3.562053        -0.687403         1.520539
 C         3.325699         0.532204         0.761485
 C         2.605985         1.600105         1.428266
 C         1.290253         1.318746         1.564625
 C         1.124442        -0.203521         0.964201
 C         0.090570        -0.120076        -0.074642
 O         0.620495        -0.920335         2.036633
 H         1.978496        -2.565114        -0.107951
 H         2.416570        -1.533038        -1.612480
 H         3.743289        -2.150085        -0.546400
 H         4.217811         0.864667         0.121547
 H         3.149603         2.444499         1.860679
 H         0.691602         1.909660         2.323157
 H         0.182478         0.632848        -0.845272
 H         0.103960        -0.879627        -0.887654
 H        -0.953502        -0.146398         0.274635
 H         1.215503        -1.237668         2.673011
