19
Iteration:  1298charge 0 multiplicity 1
 C         2.647907        -1.551158        -0.655742
 C         2.578102        -0.684183         0.528628
 O         3.323213        -0.931039         1.726460
 C         3.525353         0.315779         1.024744
 C         2.788337         1.528822         1.486140
 C         1.410977         1.324307         1.396477
 C         1.099483        -0.078550         0.933611
 C         0.114629        -0.026602        -0.160679
 O         0.443077        -0.886225         1.931909
 H         2.096712        -2.478512        -0.531795
 H         2.332736        -0.991359        -1.539059
 H         3.661865        -1.868159        -0.817324
 H         4.575732         0.444907         0.613415
 H         3.215293         2.531617         1.543304
 H         0.644877         2.064678         1.823628
 H         0.358337         0.713903        -0.938183
 H         0.084269        -1.028078        -0.616600
 H        -0.884818         0.133932         0.257633
 H         1.233264        -1.258553         2.536476
