19
Iteration:  4758charge 0 multiplicity 1
 C         2.868373        -1.587242        -0.655200
 C         2.527848        -0.695725         0.476264
 O         3.332853        -0.774294         1.724868
 C         3.398042         0.357071         0.830877
 C         2.740392         1.548440         1.328465
 C         1.422531         1.221769         1.420315
 C         1.073555        -0.237286         0.934029
 C        -0.134404        -0.112445        -0.075164
 O         0.652390        -0.780654         2.108314
 H         3.841524        -1.271663        -1.053933
 H         2.793197        -2.606650        -0.368081
 H         2.141414        -1.698824        -1.437556
 H         4.370954         0.393236         0.275665
 H         3.192870         2.417334         1.780296
 H         0.521241         1.680525         1.804919
 H         0.225552         0.765015        -0.664294
 H        -0.448116        -1.108105        -0.499120
 H        -1.049046         0.252426         0.489228
 H         1.452035        -0.744781         2.727969
