19
Iteration:  3877charge 0 multiplicity 1
 C         2.823309        -1.639190        -0.646376
 C         2.457566        -0.731713         0.548158
 O         3.460695        -0.728551         1.655398
 C         3.380147         0.384768         0.800681
 C         2.643397         1.595539         1.291108
 C         1.352938         1.342641         1.443400
 C         1.074836        -0.102913         0.967410
 C         0.048502        -0.058028         0.006396
 O         0.600509        -1.050373         2.084552
 H         3.246864        -2.692560        -0.396834
 H         1.922863        -1.711970        -1.211687
 H         3.638184        -1.179357        -1.149508
 H         4.336786         0.512114         0.378661
 H         3.186447         2.539911         1.528452
 H         0.485503         1.863366         1.776784
 H         0.248078         0.619960        -0.795143
 H        -0.252711        -1.075169        -0.373866
 H        -1.012455         0.243009         0.300067
 H         1.414330        -1.018909         2.676450
