19
Iteration:   697charge 0 multiplicity 1
 C         2.719226        -1.820547        -0.476582
 C         2.446237        -0.744779         0.506998
 O         3.396188        -0.799480         1.655821
 C         3.449942         0.359300         0.797570
 C         2.816598         1.475885         1.565343
 C         1.494617         1.323158         1.509626
 C         1.065847        -0.054349         0.975812
 C         0.214835         0.083875        -0.320175
 O         0.308042        -0.845264         1.959929
 H         2.358607        -2.826956        -0.186846
 H         2.179646        -1.566283        -1.457302
 H         3.781721        -1.898785        -0.523574
 H         4.236006         0.685096         0.168283
 H         3.362564         2.204947         2.178481
 H         0.824775         1.934472         2.053424
 H         0.680815        -0.473226        -1.165287
 H        -0.853884        -0.231988        -0.098837
 H         0.244771         1.181776        -0.644306
 H         0.981759        -1.029938         2.619454
