19
Iteration:  1602
 C         2.745735        -1.649357        -0.591627
 C         2.516601        -0.567114         0.408372
 O         3.213904        -0.972295         1.674748
 C         3.544978         0.320766         1.037422
 C         2.811023         1.423118         1.726121
 C         1.479864         1.410280         1.448428
 C         1.152623         0.035246         0.748864
 C        -0.049595        -0.170692        -0.208980
 O         0.520168        -0.774515         1.905980
 H         2.208189        -2.627895        -0.341820
 H         2.626344        -1.353391        -1.719698
 H         3.768038        -1.923525        -0.591478
 H         4.474815         0.491887         0.439241
 H         3.365769         2.106122         2.428772
 H         0.798743         2.206265         1.785457
 H         0.177335         0.145594        -1.265304
 H        -0.373448        -1.258799        -0.125616
 H        -0.829754         0.432064         0.222346
 H         1.179412        -0.760472         2.548259
