19
Iteration:  3878charge 0 multiplicity 1
 C         2.823674        -1.637620        -0.644674
 C         2.454466        -0.729409         0.553439
 O         3.469506        -0.735251         1.653788
 C         3.376163         0.383529         0.810218
 C         2.648270         1.600515         1.282138
 C         1.344850         1.338167         1.445458
 C         1.073722        -0.089864         0.974124
 C         0.045914        -0.063657         0.006751
 O         0.602177        -1.048742         2.083198
 H         3.225704        -2.667515        -0.442663
 H         1.916808        -1.749168        -1.221855
 H         3.630867        -1.164894        -1.150862
 H         4.348553         0.495974         0.368066
 H         3.190984         2.529408         1.519889
 H         0.474581         1.835292         1.741473
 H         0.253228         0.627646        -0.791851
 H        -0.217870        -1.063559        -0.393450
 H        -0.992818         0.233296         0.291333
 H         1.379985        -1.021420         2.661662
