19
Iteration:  2534
 C         2.732968        -1.726838        -0.526858
 C         2.518295        -0.621325         0.460414
 O         3.371283        -0.761308         1.659282
 C         3.556330         0.393403         0.894221
 C         2.718083         1.474333         1.654768
 C         1.400085         1.172512         1.541275
 C         1.066492        -0.121566         0.833840
 C         0.089618         0.016006        -0.333115
 O         0.453774        -0.857250         1.983413
 H         1.691847        -1.932506        -0.926997
 H         3.476475        -1.428821        -1.266254
 H         3.034338        -2.581315         0.073130
 H         4.497269         0.641099         0.417385
 H         3.220427         2.384806         2.030226
 H         0.720526         1.796470         2.085895
 H         0.575258         0.239742        -1.346930
 H        -0.512880        -0.929259        -0.338937
 H        -0.571776         0.895610        -0.223084
 H         1.242016        -1.093201         2.417055
