19
Iteration:  2600charge 0 multiplicity 1
 C         2.606135        -1.670741        -0.467744
 C         2.557143        -0.728571         0.610658
 O         3.307570        -0.683075         1.797886
 C         3.540443         0.463957         0.814324
 C         2.780468         1.616731         1.253387
 C         1.528074         1.201300         1.591615
 C         1.093080        -0.133923         0.915720
 C         0.170432         0.126749        -0.234020
 O         0.391004        -1.150802         1.829398
 H         2.082332        -1.213942        -1.304578
 H         3.655331        -1.867622        -0.596424
 H         2.035030        -2.608687        -0.213559
 H         4.524047         0.400481         0.455075
 H         3.099661         2.503991         1.825224
 H         0.790007         1.616888         2.335497
 H         0.340395         1.172314        -0.639827
 H         0.233466        -0.778395        -0.841381
 H        -0.826181         0.273829         0.186997
 H         1.136542        -1.531875         2.442944
