19
Iteration:  3665charge 0 multiplicity 1
 C         2.550575        -1.569046        -0.583314
 C         2.470306        -0.561666         0.514230
 O         3.435409        -0.806614         1.620310
 C         3.361742         0.494566         0.840594
 C         2.658874         1.615310         1.344181
 C         1.393620         1.291031         1.564913
 C         1.091174        -0.125413         1.005121
 C         0.070858        -0.255882        -0.162220
 O         0.756817        -1.016878         2.076281
 H         3.261468        -2.339077        -0.435781
 H         1.611607        -2.061101        -0.840524
 H         2.975042        -1.169487        -1.555090
 H         4.230212         0.632253         0.123426
 H         3.311447         2.478580         1.662064
 H         0.606472         1.902498         2.003663
 H         0.659452         0.294110        -0.980290
 H        -0.134104        -1.285156        -0.422000
 H        -0.820896         0.307065        -0.038344
 H         1.620577        -1.117197         2.561248
