19
Iteration:  4346
 C         2.610014        -1.741883        -0.532412
 C         2.484067        -0.665453         0.595737
 O         3.611840        -0.688938         1.497171
 C         3.320920         0.563279         0.654414
 C         2.636153         1.656896         1.381549
 C         1.345063         1.259658         1.587579
 C         1.042818        -0.193709         1.109475
 C         0.211704        -0.161341        -0.125892
 O         0.583004        -1.040600         2.085073
 H         1.864952        -1.526208        -1.290101
 H         3.532485        -1.574078        -1.003973
 H         2.354553        -2.662289        -0.123589
 H         4.054202         0.686711        -0.074206
 H         3.027321         2.647524         1.522411
 H         0.610245         1.968672         1.928501
 H         0.492982         0.440513        -1.000714
 H        -0.063737        -1.104249        -0.596621
 H        -0.655391         0.455507         0.128131
 H         1.423540        -1.137927         2.652607
