19
Iteration:  3725charge 0 multiplicity 1
 C         2.790736        -1.722732        -0.521756
 C         2.546469        -0.614418         0.477942
 O         3.453889        -0.743215         1.566569
 C         3.481796         0.510110         0.712002
 C         2.678151         1.625753         1.389204
 C         1.388733         1.242427         1.557368
 C         1.077841        -0.068145         0.924341
 C        -0.150689        -0.089352         0.006236
 O         0.624468        -1.065163         2.023593
 H         2.608968        -2.760602         0.035122
 H         2.194978        -1.570585        -1.496804
 H         3.805865        -1.482905        -0.835290
 H         4.309526         0.579542         0.067744
 H         3.115253         2.554969         1.693166
 H         0.556091         1.606748         2.188774
 H        -0.027056         0.426490        -0.936409
 H        -0.443927        -1.141104        -0.280204
 H        -1.018486         0.427115         0.568360
 H         1.455007        -1.174443         2.503142
