19
Iteration:  1186
 C         2.395921        -1.790432        -0.480547
 C         2.529893        -0.653113         0.547094
 O         3.256708        -0.748558         1.755057
 C         3.463565         0.429551         0.902254
 C         2.733768         1.607242         1.501725
 C         1.484417         1.299615         1.543409
 C         1.187613        -0.049280         0.918602
 C         0.176311         0.130834        -0.287608
 O         0.704467        -1.173521         1.766081
 H         1.737405        -2.545565        -0.080146
 H         2.007440        -1.439238        -1.416771
 H         3.401629        -2.290843        -0.725825
 H         4.433469         0.535302         0.431694
 H         3.273064         2.521405         1.903405
 H         0.838784         1.787243         2.251456
 H         0.676100         0.846871        -0.969563
 H        -0.247972        -0.772499        -0.762289
 H        -0.710668         0.728047         0.201138
 H         1.118908        -1.182350         2.583398
