19
Iteration:    24
 C         2.467426        -1.704871        -0.391663
 C         2.525095        -0.548121         0.631818
 O         3.483906        -0.857249         1.701108
 C         3.560791         0.382625         0.946186
 C         2.811458         1.622255         1.422492
 C         1.465781         1.446795         1.399471
 C         1.104329        -0.040496         1.002491
 C         0.051602         0.018236        -0.166920
 O         0.502034        -1.205575         1.710329
 H         1.859876        -2.489329         0.048983
 H         1.912146        -1.473061        -1.263501
 H         3.476074        -2.115381        -0.664848
 H         4.408700         0.455405         0.332268
 H         3.224443         2.617489         1.541895
 H         0.706216         2.223267         1.549087
 H        -0.241710        -0.981564        -0.513108
 H        -0.820517         0.607906         0.176842
 H         0.388065         0.591429        -1.018387
 H         1.043100        -1.420810         2.597920
