19
Iteration:  1492
 C         2.679684        -1.863413        -0.438182
 C         2.504727        -0.620883         0.427973
 O         3.261214        -0.796930         1.675882
 C         3.528948         0.323782         0.921567
 C         2.798179         1.532484         1.604208
 C         1.453096         1.288285         1.534775
 C         1.150399        -0.002668         0.827283
 C         0.018609         0.154237        -0.219357
 O         0.585056        -0.994844         1.788732
 H         1.804759        -2.541400        -0.249245
 H         2.573073        -1.551913        -1.520201
 H         3.638942        -2.270946        -0.128862
 H         4.623125         0.308573         0.635591
 H         3.142477         2.393450         2.130760
 H         0.639502         1.864175         1.909435
 H         0.194134         0.872511        -1.056234
 H        -0.480619        -0.771453        -0.471380
 H        -0.807717         0.734852         0.279712
 H         1.092187        -0.980384         2.625220
