19
Iteration:   702
 C         2.664247        -1.785808        -0.525170
 C         2.434591        -0.720216         0.558297
 O         3.384211        -0.754707         1.686472
 C         3.435775         0.294110         0.859205
 C         2.837307         1.505423         1.535173
 C         1.547367         1.299361         1.461467
 C         1.090363        -0.063830         0.960817
 C         0.197803         0.075289        -0.293094
 O         0.316123        -0.874051         1.935500
 H         2.372291        -2.825476        -0.265450
 H         2.259245        -1.509560        -1.485214
 H         3.808586        -1.662441        -0.499954
 H         4.316704         0.582981         0.195014
 H         3.495711         2.211129         2.033610
 H         0.716988         1.873454         1.966288
 H         0.646244        -0.484053        -1.127710
 H        -0.808193        -0.263337        -0.086905
 H         0.153820         1.111480        -0.593968
 H         0.895429        -1.091797         2.731644
