19
Iteration:  3211
 C         2.736602        -1.565247        -0.614309
 C         2.483285        -0.606200         0.518658
 O         3.452678        -0.739223         1.579594
 C         3.474420         0.480660         0.748094
 C         2.699146         1.609203         1.311671
 C         1.437896         1.228165         1.628725
 C         1.117015        -0.191078         1.051829
 C         0.086235        -0.183478        -0.066663
 O         0.461498        -1.044605         2.050100
 H         3.521542        -1.290396        -1.309075
 H         2.909253        -2.528641        -0.152422
 H         1.814363        -1.566723        -1.190844
 H         4.412345         0.635331         0.252356
 H         3.040027         2.663458         1.432509
 H         0.640927         1.829653         1.989674
 H         0.417639         0.284261        -1.050346
 H        -0.347372        -1.143310        -0.462642
 H        -0.836570         0.429212         0.145023
 H         0.950027        -0.907253         2.836591
