19
Iteration:  4118
 C         2.686175        -1.708752        -0.538503
 C         2.543467        -0.681809         0.557553
 O         3.391423        -0.714138         1.663508
 C         3.363453         0.525379         0.731577
 C         2.634548         1.689944         1.216308
 C         1.390435         1.239894         1.547193
 C         1.115260        -0.154966         1.058029
 C         0.007696        -0.073685         0.056032
 O         0.694582        -1.091495         1.897613
 H         1.736985        -1.854488        -1.102306
 H         3.493468        -1.282948        -1.235271
 H         3.081316        -2.499073         0.120458
 H         4.354278         0.727116         0.242811
 H         3.036875         2.680008         1.083811
 H         0.712772         1.931031         2.031325
 H         0.330019         0.414677        -0.858526
 H        -0.166846        -1.103363        -0.344483
 H        -0.814011         0.342373         0.637404
 H         1.527939        -1.366033         2.406084
