19
Iteration:  2288
 C         2.693632        -1.908780        -0.440977
 C         2.598506        -0.679706         0.510648
 O         3.355723        -0.699148         1.740417
 C         3.460945         0.420538         0.803799
 C         2.725755         1.545707         1.463985
 C         1.471538         1.201298         1.591090
 C         1.139150        -0.117656         0.910389
 C         0.124032         0.222608        -0.129414
 O         0.404299        -1.017781         1.724008
 H         2.486948        -2.749802         0.193741
 H         1.965309        -1.840336        -1.230270
 H         3.759547        -1.953466        -0.800189
 H         4.357487         0.623667         0.246223
 H         3.216775         2.461395         1.877477
 H         0.644282         1.622220         2.108178
 H         0.440066         1.176123        -0.617650
 H         0.003683        -0.332960        -1.044904
 H        -0.895151         0.340450         0.248782
 H         0.857656        -0.954811         2.565669
