19
Iteration:  4347charge 0 multiplicity 1
 C         2.613893        -1.737082        -0.522422
 C         2.478227        -0.672813         0.592756
 O         3.614339        -0.692343         1.499500
 C         3.323772         0.571413         0.655271
 C         2.624156         1.657063         1.369094
 C         1.355599         1.263092         1.597243
 C         1.038825        -0.196504         1.098314
 C         0.209139        -0.159196        -0.121639
 O         0.585838        -1.041984         2.084379
 H         1.906945        -1.530188        -1.316111
 H         3.538382        -1.576951        -0.997124
 H         2.338228        -2.674243        -0.141625
 H         4.058415         0.680151        -0.067081
 H         3.039158         2.633336         1.519974
 H         0.631218         1.979709         1.967237
 H         0.485168         0.419169        -1.013928
 H        -0.091318        -1.071611        -0.617069
 H        -0.652916         0.447316         0.143798
 H         1.388125        -1.138108         2.660238
