19
Iteration:  1352
 C         2.637797        -1.723672        -0.520497
 C         2.511620        -0.559948         0.460956
 O         3.226826        -0.882248         1.635594
 C         3.524943         0.347465         0.958124
 C         2.735298         1.532614         1.611682
 C         1.460993         1.287110         1.556927
 C         1.123712        -0.037915         0.880530
 C         0.061794         0.023002        -0.252663
 O         0.617374        -0.915215         1.865508
 H         2.028931        -2.587655        -0.278117
 H         2.595987        -1.608951        -1.614600
 H         3.618295        -2.091247        -0.301689
 H         4.552598         0.433032         0.480665
 H         3.358412         2.328925         2.027052
 H         0.554333         1.948572         1.709576
 H         0.386549         0.645813        -1.100523
 H        -0.193303        -1.032424        -0.435844
 H        -0.928629         0.355899         0.133902
 H         1.402867        -0.921400         2.516771
