19
Iteration:  4650charge 0 multiplicity 1
 C         2.716765        -1.804175        -0.408110
 C         2.508619        -0.655168         0.510143
 O         3.463087        -0.666331         1.488440
 C         3.379364         0.522101         0.622122
 C         2.622061         1.627944         1.243011
 C         1.416350         1.226937         1.703104
 C         1.111093        -0.158371         1.117830
 C         0.178171         0.049326        -0.078750
 O         0.470010        -1.106980         2.021882
 H         3.583614        -2.529820        -0.150444
 H         1.828745        -2.506120        -0.561175
 H         3.111031        -1.316736        -1.367550
 H         4.270315         0.689596        -0.049745
 H         2.986550         2.667191         1.421735
 H         0.833757         1.835252         2.376229
 H         0.663693         0.209102        -1.097771
 H        -0.471322        -0.795670        -0.392970
 H        -0.415619         1.011935        -0.117973
 H         1.048618        -1.461851         2.760201
