19
Iteration:  2716
 C         2.758887        -1.443549        -0.585739
 C         2.511937        -0.603743         0.583384
 O         3.244808        -1.021259         1.794339
 C         3.492076         0.368805         0.911815
 C         2.717042         1.632054         1.355384
 C         1.418561         1.301404         1.344268
 C         1.162773        -0.118419         0.928156
 C         0.052222        -0.036187        -0.117138
 O         0.553363        -1.035128         1.977283
 H         3.910532        -1.662047        -0.702097
 H         2.252741        -2.397080        -0.747296
 H         2.592414        -0.906421        -1.506561
 H         4.465532         0.237598         0.470674
 H         3.138386         2.642092         1.506152
 H         0.667821         2.079020         1.524582
 H         0.233721         0.403199        -1.134331
 H        -0.202863        -1.112061        -0.245475
 H        -0.810573         0.512860         0.225842
 H         1.175679        -0.977678         2.727697
