19
Iteration:   919
 C         2.649351        -1.785243        -0.341484
 C         2.553599        -0.505450         0.455283
 O         3.389142        -0.899058         1.683230
 C         3.548732         0.392643         0.869611
 C         2.768245         1.429721         1.448089
 C         1.409774         1.261687         1.644222
 C         1.024634        -0.012093         0.865316
 C         0.015283         0.199935        -0.260497
 O         0.556266        -1.023351         1.768046
 H         1.961469        -2.393425         0.296028
 H         2.370660        -1.685156        -1.371070
 H         3.746000        -2.203984        -0.292965
 H         4.430748         0.648526         0.318316
 H         3.324477         2.098484         2.066704
 H         0.701676         1.846270         2.156794
 H        -0.126008         1.344283        -0.543419
 H         0.186965        -0.396430        -1.249831
 H        -0.977592        -0.253024         0.096333
 H         1.182327        -0.892757         2.624209
