19
Iteration:  3039
 C         2.729571        -1.622251        -0.561757
 C         2.486032        -0.522806         0.437327
 O         3.392836        -0.788892         1.560900
 C         3.507153         0.433450         0.781815
 C         2.683207         1.465017         1.647441
 C         1.410722         1.188174         1.518920
 C         1.094170        -0.115994         0.885109
 C        -0.021593        -0.302924        -0.164407
 O         0.583055        -0.690319         2.042824
 H         2.193810        -1.564545        -1.597884
 H         3.796287        -1.504991        -0.719747
 H         2.658802        -2.655618        -0.229840
 H         4.394270         0.452033         0.181932
 H         3.060857         2.030953         2.487581
 H         0.558343         1.608965         2.073489
 H         0.290062         0.132607        -1.120340
 H        -0.212824        -1.317886        -0.468533
 H        -0.840014         0.289913         0.148063
 H         1.374790        -0.929770         2.548213
