19
Iteration:   837charge 0 multiplicity 1
 C         2.624465        -1.533323        -0.609289
 C         2.439373        -0.741637         0.633159
 O         3.488044        -0.936548         1.751965
 C         3.444687         0.286568         0.838808
 C         2.827925         1.477256         1.487925
 C         1.442640         1.368769         1.382627
 C         1.049544        -0.079747         1.016235
 C         0.243942        -0.013811        -0.318845
 O         0.356916        -0.865624         2.010688
 H         1.990320        -2.397783        -0.660288
 H         2.326852        -0.976754        -1.514035
 H         3.574466        -1.902267        -0.735406
 H         4.362586         0.393521         0.278232
 H         3.421489         2.284662         1.935535
 H         0.668114         2.056296         1.693634
 H        -0.713392        -0.377151        -0.105065
 H         0.192049         0.994806        -0.603761
 H         0.570350        -0.623496        -1.115443
 H         0.775501        -0.660336         2.963176
