19
Iteration:  4745charge 0 multiplicity 1
 C         2.842963        -1.759941        -0.658553
 C         2.509061        -0.707980         0.505984
 O         3.292576        -0.792416         1.725787
 C         3.470100         0.486603         0.704209
 C         2.690012         1.634394         1.366655
 C         1.432544         1.228332         1.481989
 C         1.086015        -0.142906         0.908639
 C        -0.063405        -0.093369        -0.090138
 O         0.608464        -0.865660         2.141973
 H         3.751148        -1.530167        -1.192927
 H         3.066695        -2.720699        -0.232577
 H         2.071846        -1.543123        -1.354319
 H         4.464044         0.559219         0.183606
 H         3.252312         2.407389         1.951333
 H         0.770603         1.808746         2.117937
 H        -0.100173         0.734571        -0.882256
 H        -0.218795        -0.933758        -0.814405
 H        -0.940302         0.072784         0.584336
 H         1.415369        -0.933423         2.631694
