19
Iteration:  4135charge 0 multiplicity 1
 C         2.757422        -1.660469        -0.538117
 C         2.507147        -0.604439         0.471976
 O         3.430826        -0.649584         1.677107
 C         3.498319         0.451749         0.762970
 C         2.627900         1.633138         1.167311
 C         1.343799         1.227746         1.528115
 C         1.143871        -0.206969         1.001790
 C        -0.078596        -0.008600        -0.035553
 O         0.663021        -1.162002         2.094988
 H         1.895378        -1.696951        -1.299940
 H         3.554728        -1.458117        -1.215030
 H         2.782008        -2.700745        -0.206667
 H         4.409124         0.588385         0.141713
 H         2.923046         2.646974         1.525535
 H         0.471945         1.774405         1.970734
 H         0.316121         0.432783        -0.978464
 H        -0.563154        -1.002585        -0.181738
 H        -0.785764         0.739665         0.424965
 H         1.463899        -1.194157         2.665064
