19
Iteration:   362charge 0 multiplicity 1
 C         2.574816        -1.785238        -0.398838
 C         2.512208        -0.743475         0.608517
 O         3.402290        -0.714139         1.762999
 C         3.505431         0.329355         0.710665
 C         2.765459         1.485939         1.223580
 C         1.448276         1.207525         1.652546
 C         1.107495        -0.109214         0.988948
 C         0.241779         0.276009        -0.204980
 O         0.359241        -1.021607         1.822968
 H         2.013272        -2.632758        -0.064078
 H         2.253082        -1.493740        -1.403479
 H         3.587815        -2.091493        -0.557161
 H         4.515844         0.507113         0.231437
 H         3.297886         2.433939         1.496598
 H         0.918609         1.978876         2.279209
 H         0.201429        -0.437797        -1.001900
 H        -0.800711         0.440634         0.044033
 H         0.557726         1.239387        -0.566169
 H         0.959970        -0.977639         2.697432
