19
Iteration:  3522
 C         2.710875        -1.700177        -0.537379
 C         2.461628        -0.653506         0.535452
 O         3.502085        -0.689628         1.563888
 C         3.433103         0.448324         0.800934
 C         2.699147         1.610605         1.440109
 C         1.407593         1.290549         1.491160
 C         1.114784        -0.166018         1.039213
 C         0.051075        -0.009583        -0.056948
 O         0.524490        -1.130021         1.923555
 H         1.804372        -1.713884        -1.073431
 H         3.510268        -1.460932        -1.305595
 H         2.869194        -2.660937        -0.048283
 H         4.333899         0.597134         0.249389
 H         3.115575         2.581908         1.698562
 H         0.530532         1.887378         1.803331
 H         0.525792         0.359357        -0.937834
 H        -0.427697        -0.987222        -0.185694
 H        -0.720885         0.767901         0.154557
 H         1.060590        -0.970513         2.790690
