19
Iteration:  2012
 C         2.460231        -1.818810        -0.387193
 C         2.589997        -0.671501         0.540138
 O         3.480983        -0.692751         1.725184
 C         3.524879         0.448111         0.803289
 C         2.683180         1.567662         1.412153
 C         1.432881         1.234325         1.700625
 C         1.125291        -0.153333         1.002156
 C         0.266278         0.272679        -0.279250
 O         0.419668        -1.168481         1.748983
 H         1.649979        -2.565953        -0.091882
 H         2.016939        -1.322143        -1.304351
 H         3.406050        -2.308407        -0.636021
 H         4.350109         0.734279         0.171793
 H         3.158882         2.558668         1.578486
 H         0.600686         1.767241         2.115096
 H         0.813730         0.918608        -1.011641
 H        -0.049355        -0.605373        -0.928129
 H        -0.716016         0.691292        -0.050677
 H         0.932242        -1.510289         2.567891
