19
Iteration:  1850charge 0 multiplicity 1
 C         2.772974        -1.684833        -0.766028
 C         2.511109        -0.652905         0.409889
 O         3.242407        -0.951719         1.648805
 C         3.575062         0.378852         1.091460
 C         2.739614         1.419160         1.701517
 C         1.424472         1.319045         1.392683
 C         1.123596        -0.072427         0.878900
 C        -0.039418        -0.194812        -0.300901
 O         0.557540        -0.608267         2.084877
 H         1.993736        -2.437332        -1.010637
 H         2.886311        -1.137005        -1.736129
 H         3.603603        -2.239778        -0.464166
 H         4.605307         0.638226         0.985825
 H         3.147075         2.245086         2.232235
 H         0.598909         1.900276         1.850730
 H         0.474241         0.464873        -1.026637
 H        -0.256015        -1.176829        -0.825164
 H        -0.925707         0.238518         0.095585
 H         1.340287        -0.546035         2.770061
