19
Iteration:   832
 C         2.633923        -1.568671        -0.646609
 C         2.443924        -0.710895         0.619415
 O         3.465786        -0.920405         1.728991
 C         3.497640         0.299577         0.837704
 C         2.804240         1.481993         1.539084
 C         1.459741         1.368016         1.365702
 C         1.046192        -0.105544         1.025106
 C         0.248310        -0.041135        -0.275919
 O         0.328003        -0.808106         2.019740
 H         1.891568        -2.427776        -0.694563
 H         2.422003        -0.935707        -1.510263
 H         3.672702        -2.114463        -0.830612
 H         4.408492         0.457463         0.221483
 H         3.488457         2.174033         2.037553
 H         0.616473         1.991297         1.737235
 H        -0.781328        -0.567461        -0.169020
 H         0.061430         1.036128        -0.611541
 H         0.706885        -0.702997        -1.065385
 H         0.762341        -0.802876         2.839162
