19
Iteration:  2588
 C         2.707048        -1.701888        -0.494870
 C         2.496549        -0.593771         0.566784
 O         3.318177        -0.679764         1.841093
 C         3.491306         0.373328         0.842403
 C         2.762446         1.615248         1.255697
 C         1.549322         1.157623         1.584064
 C         1.085247        -0.210473         0.997252
 C         0.127947         0.172035        -0.173508
 O         0.388354        -1.126276         1.798023
 H         2.039904        -1.492508        -1.389068
 H         3.681323        -1.730133        -0.984944
 H         2.463031        -2.686891        -0.091669
 H         4.448641         0.469385         0.402237
 H         3.355412         2.518541         1.520743
 H         0.888788         1.846805         2.100493
 H         0.616523         0.990292        -0.792651
 H        -0.010420        -0.563773        -0.995178
 H        -0.899473         0.319861         0.157331
 H         1.026831        -1.390973         2.416153
