19
Iteration:  3854
 C         2.779281        -1.696217        -0.568235
 C         2.522396        -0.533689         0.463771
 O         3.318151        -0.698800         1.650205
 C         3.475827         0.546813         0.746400
 C         2.707019         1.622863         1.352175
 C         1.466634         1.143301         1.530710
 C         1.079158        -0.169087         0.949198
 C        -0.082015        -0.144029        -0.055796
 O         0.647836        -1.000621         2.055215
 H         2.746366        -2.761884        -0.080844
 H         2.017133        -1.775875        -1.308772
 H         3.781319        -1.736650        -0.951356
 H         4.397497         0.522768         0.249291
 H         3.207221         2.509251         1.808667
 H         0.532336         1.523180         1.967069
 H         0.334725         0.363958        -0.912745
 H        -0.733825        -0.996763        -0.392313
 H        -0.934135         0.590954         0.176203
 H         1.379489        -1.148514         2.637582
