19
Iteration:  4180charge 0 multiplicity 1
 C         2.652266        -1.627256        -0.598168
 C         2.490967        -0.610808         0.503647
 O         3.550931        -0.749621         1.508076
 C         3.377113         0.519715         0.721438
 C         2.614142         1.617751         1.394502
 C         1.325188         1.235548         1.605721
 C         1.106215        -0.067795         1.000781
 C         0.095004        -0.315666        -0.067295
 O         0.616301        -0.895039         2.065184
 H         2.690897        -1.572200        -1.746094
 H         3.619128        -2.037115        -0.347744
 H         2.024705        -2.471591        -0.501280
 H         4.338489         0.589900         0.103742
 H         3.072845         2.430988         1.890362
 H         0.562121         1.726185         2.226300
 H         0.264691         0.044509        -1.082181
 H        -0.119998        -1.426094         0.120482
 H        -0.877936         0.212532         0.253030
 H         1.383473        -1.055893         2.677101
