19
Iteration:  3051
 C         2.715118        -1.626224        -0.642402
 C         2.449937        -0.615009         0.393611
 O         3.399228        -0.770577         1.582443
 C         3.462321         0.466387         0.843332
 C         2.737283         1.510302         1.633280
 C         1.401598         1.215995         1.444192
 C         1.069558        -0.169132         0.882915
 C         0.077779        -0.217196        -0.253315
 O         0.561577        -0.787154         2.185084
 H         2.007465        -1.690664        -1.595074
 H         3.713416        -1.632447        -1.008242
 H         2.517877        -2.470324        -0.007317
 H         4.383348         0.732727         0.340895
 H         3.140407         2.230035         2.373760
 H         0.678670         1.665721         2.125129
 H         0.443092         0.429933        -1.059892
 H        -0.061247        -1.263765        -0.454687
 H        -0.877661         0.028293         0.082106
 H         1.278550        -0.747390         2.799789
