19
Iteration:  2093charge 0 multiplicity 1
 C         2.673126        -1.628254        -0.553202
 C         2.574533        -0.625475         0.545596
 O         3.413613        -0.919354         1.637685
 C         3.511241         0.408429         0.892289
 C         2.742572         1.497998         1.620555
 C         1.428974         1.274726         1.481075
 C         1.051601        -0.089533         0.859374
 C         0.076212        -0.029166        -0.275369
 O         0.430532        -0.880607         1.947176
 H         2.221900        -2.571783        -0.219461
 H         2.548545        -1.341829        -1.612729
 H         3.797098        -1.884680        -0.488293
 H         4.518916         0.641696         0.455886
 H         3.277679         2.311410         2.060736
 H         0.545756         1.799944         1.882560
 H         0.431603         0.370646        -1.265839
 H        -0.387726        -1.037361        -0.332280
 H        -0.726742         0.717207         0.112534
 H         1.124832        -0.780908         2.700976
