19
Iteration:  3475
 C         2.902445        -1.699778        -0.591764
 C         2.475206        -0.742496         0.500013
 O         3.488527        -0.647320         1.600800
 C         3.279807         0.459061         0.658439
 C         2.692072         1.563865         1.427706
 C         1.444643         1.145081         1.641678
 C         1.108125        -0.237226         0.985710
 C         0.073234        -0.026454        -0.075144
 O         0.403448        -0.871712         2.021070
 H         2.045527        -1.941655        -1.400923
 H         3.723616        -1.194068        -1.179500
 H         3.279379        -2.500763         0.017153
 H         4.077902         0.628418        -0.131731
 H         3.371947         2.450206         1.563592
 H         0.736505         1.593867         2.325533
 H         0.514022         0.698699        -0.791338
 H        -0.321691        -1.007830        -0.418631
 H        -0.790570         0.535292         0.383538
 H         0.941794        -1.366136         2.621105
