19
Iteration:   315charge 0 multiplicity 1
 C         2.794217        -1.864244        -0.292549
 C         2.537513        -0.602728         0.390877
 O         3.340273        -0.882363         1.643443
 C         3.549752         0.289975         0.819509
 C         2.815755         1.446940         1.459673
 C         1.443426         1.324297         1.520464
 C         1.025403         0.055970         0.890687
 C        -0.044503         0.233052        -0.157352
 O         0.468238        -0.931477         1.834275
 H         2.610787        -2.669330         0.454562
 H         2.128719        -2.027075        -1.128059
 H         3.852100        -2.012189        -0.737495
 H         4.517441         0.459254         0.330521
 H         3.418819         2.216736         1.895044
 H         0.766609         1.929425         2.049205
 H        -0.603812        -0.737952        -0.325037
 H        -0.853556         0.892019         0.319988
 H         0.220417         0.847414        -1.044392
 H         1.105640        -1.341828         2.453690
