19
Iteration:  1246charge 0 multiplicity 1
 C         2.892082        -1.712033        -0.681863
 C         2.515223        -0.731758         0.482920
 O         3.386547        -0.792596         1.694623
 C         3.431575         0.403149         0.769612
 C         2.717992         1.463788         1.504548
 C         1.456299         1.198852         1.645273
 C         1.055402        -0.107481         0.971551
 C         0.107077         0.040604        -0.177925
 O         0.343009        -0.802564         1.949101
 H         2.374063        -2.688090        -0.582609
 H         2.680354        -1.236295        -1.702163
 H         3.921120        -1.835588        -0.596221
 H         4.354944         0.480204         0.139640
 H         3.203118         2.100427         2.242420
 H         0.688162         1.779970         2.192709
 H         0.615130        -0.041058        -1.133826
 H        -0.636798        -0.754007        -0.333995
 H        -0.224006         0.992203        -0.052486
 H         0.795859        -0.802331         2.855953
