19
Iteration:  4056
 C         2.682890        -1.786075        -0.510720
 C         2.553493        -0.708073         0.505923
 O         3.565842        -0.682207         1.521802
 C         3.323625         0.524629         0.747220
 C         2.588452         1.599118         1.423750
 C         1.307502         1.308697         1.586286
 C         1.128818        -0.185657         0.936888
 C         0.079422        -0.117330        -0.107944
 O         0.617457        -0.918503         2.039300
 H         1.936021        -2.441942        -0.133946
 H         2.489037        -1.607997        -1.580193
 H         3.652906        -2.384618        -0.503205
 H         4.115084         0.839480         0.099604
 H         3.104581         2.394453         1.943955
 H         0.622260         1.770781         2.295644
 H         0.105738         0.846223        -0.803340
 H         0.101795        -0.967692        -0.831852
 H        -0.892744        -0.183780         0.380900
 H         1.429284        -1.136890         2.671538
