19
Iteration:  2845
 C         2.650064        -1.651174        -0.591641
 C         2.533260        -0.668525         0.569296
 O         3.396722        -0.723003         1.781342
 C         3.352590         0.418147         0.795629
 C         2.632440         1.634175         1.235058
 C         1.453902         1.254188         1.697753
 C         1.122407        -0.136856         1.067120
 C         0.134591         0.051688        -0.174587
 O         0.589569        -1.158421         1.851395
 H         1.688290        -2.111741        -0.969383
 H         2.976814        -1.150488        -1.484616
 H         3.367651        -2.389295        -0.421965
 H         4.391573         0.568801         0.457821
 H         3.213524         2.549033         1.153485
 H         0.591324         1.871659         2.096379
 H         0.911373         0.190226        -0.966881
 H        -0.468472        -0.864250        -0.408414
 H        -0.458957         0.961487        -0.055864
 H         1.015449        -1.215204         2.796229
