19
Iteration:   494charge 0 multiplicity 1
 C         2.794006        -1.466804        -0.650614
 C         2.469154        -0.711012         0.605878
 O         3.124802        -1.082009         1.840202
 C         3.543427         0.280878         1.016132
 C         2.744337         1.534016         1.307489
 C         1.475707         1.317599         1.276108
 C         1.056247        -0.078861         0.884437
 C         0.032522         0.006003        -0.240135
 O         0.634212        -0.816079         2.090918
 H         2.333834        -2.453109        -0.604110
 H         2.257200        -0.941946        -1.479071
 H         3.790437        -1.582069        -0.932331
 H         4.603080         0.298110         0.866228
 H         3.378781         2.355906         1.681682
 H         0.759787         2.026753         1.713331
 H        -0.261290        -0.966610        -0.595432
 H        -0.853017         0.513730         0.053769
 H         0.539339         0.593012        -1.002285
 H         1.474131        -0.932813         2.517149
