19
Iteration:  4504
 C         2.771075        -1.531030        -0.710284
 C         2.593340        -0.671603         0.482931
 O         3.496967        -0.774791         1.574281
 C         3.442679         0.413656         0.758066
 C         2.696013         1.552229         1.363298
 C         1.339560         1.370513         1.383355
 C         1.062826        -0.173310         1.023624
 C        -0.064559        -0.309107         0.028625
 O         0.562274        -0.893293         2.205640
 H         1.959665        -1.491313        -1.406699
 H         3.707959        -1.403408        -1.248866
 H         2.781201        -2.577676        -0.465098
 H         4.377298         0.618548         0.209071
 H         3.062081         2.496993         1.758774
 H         0.646502         2.061436         1.892791
 H         0.077437         0.033359        -0.964106
 H        -0.564925        -1.252882         0.156391
 H        -0.774307         0.515397         0.262995
 H         1.254331        -0.994125         2.870790
