19
Iteration:  3995
 C         2.692020        -1.650603        -0.736826
 C         2.542099        -0.717743         0.586495
 O         3.399018        -0.680433         1.748791
 C         3.457963         0.454578         0.790035
 C         2.614846         1.660606         1.295064
 C         1.384181         1.257048         1.545037
 C         1.121834        -0.128133         0.943145
 C        -0.006247        -0.122125        -0.043762
 O         0.665577        -1.053860         2.002424
 H         3.024728        -2.718117        -0.368898
 H         1.724109        -1.726564        -1.125415
 H         3.531059        -1.308502        -1.294496
 H         4.381126         0.446193         0.285233
 H         3.020680         2.636962         1.563469
 H         0.669512         1.941464         1.908434
 H         0.348928        -0.112891        -1.024198
 H        -0.508996        -1.066012         0.300675
 H        -0.731303         0.730563        -0.007514
 H         1.390379        -0.984573         2.693707
