19
Iteration:  4835
 C         2.634273        -1.592006        -0.704433
 C         2.505678        -0.623583         0.457326
 O         3.308869        -0.778420         1.741227
 C         3.426007         0.443341         0.850139
 C         2.746385         1.479383         1.501168
 C         1.412528         1.324694         1.318016
 C         1.055948        -0.160989         0.907578
 C        -0.016146        -0.378655        -0.169701
 O         0.750748        -0.746007         2.169894
 H         3.425745        -2.349959        -0.595893
 H         1.716361        -2.067538        -0.851551
 H         2.927635        -1.068152        -1.583649
 H         4.422131         0.569482         0.463796
 H         3.191939         2.222011         2.101608
 H         0.646359         1.828865         1.947301
 H         0.400183         0.209932        -0.999756
 H         0.017917        -1.458604        -0.283291
 H        -0.888201         0.199832         0.175523
 H         1.569908        -0.463246         2.629416
