19
Iteration:  3038
 C         2.733779        -1.622169        -0.559615
 C         2.487803        -0.529927         0.440006
 O         3.392292        -0.792542         1.557939
 C         3.507874         0.440039         0.788216
 C         2.686838         1.457035         1.640680
 C         1.404948         1.195827         1.527174
 C         1.093168        -0.104727         0.883761
 C        -0.024395        -0.307326        -0.155232
 O         0.582481        -0.690290         2.031883
 H         2.204937        -1.515856        -1.559777
 H         3.831508        -1.523558        -0.726637
 H         2.660542        -2.681315        -0.227083
 H         4.389291         0.458897         0.177940
 H         3.078363         2.027968         2.458989
 H         0.537481         1.621029         2.068456
 H         0.250688         0.098886        -1.127216
 H        -0.228218        -1.323354        -0.475128
 H        -0.853432         0.319604         0.142520
 H         1.412010        -0.955666         2.546758
