19
Iteration:   789charge 0 multiplicity 1
 C         2.757997        -1.705919        -0.545416
 C         2.533579        -0.642250         0.446487
 O         3.247349        -0.953787         1.674015
 C         3.545205         0.350913         0.961634
 C         2.817095         1.479541         1.566156
 C         1.480063         1.324783         1.499616
 C         1.054306         0.027611         0.833956
 C        -0.067252        -0.124510        -0.255081
 O         0.545846        -0.693824         1.959485
 H         1.871731        -2.316297        -0.842438
 H         3.129341        -1.370152        -1.503797
 H         3.497469        -2.489743        -0.089245
 H         4.489021         0.329986         0.393787
 H         3.256898         2.204812         2.280379
 H         0.750067         1.875755         2.160919
 H        -0.305964        -1.183895        -0.498676
 H        -0.947897         0.469960         0.072550
 H         0.340884         0.331770        -1.188063
 H         1.331531        -0.871771         2.486915
