19
Iteration:  1624charge 0 multiplicity 1
 C         2.748517        -1.641430        -0.542545
 C         2.556826        -0.614589         0.470436
 O         3.152968        -0.869643         1.763967
 C         3.560163         0.325209         1.001065
 C         2.830259         1.499024         1.589527
 C         1.474267         1.293503         1.423302
 C         1.028197        -0.096018         0.776923
 C        -0.074864         0.036878        -0.216086
 O         0.620304        -0.854557         1.887923
 H         2.128140        -2.574551        -0.353196
 H         2.574660        -1.236296        -1.621409
 H         3.705328        -2.041028        -0.670695
 H         4.618694         0.188727         0.691955
 H         3.468838         2.264116         2.131358
 H         0.658430         1.761172         2.037347
 H         0.373666         0.372791        -1.191935
 H        -0.473295        -1.034530        -0.351982
 H        -0.885162         0.639788         0.144161
 H         1.531735        -1.245165         2.221163
