19
Iteration:  4863charge 0 multiplicity 1
 C         2.832831        -1.674377        -0.569860
 C         2.516600        -0.641287         0.436199
 O         3.439024        -0.874089         1.562236
 C         3.466859         0.415996         0.863425
 C         2.663724         1.582484         1.327178
 C         1.341818         1.318593         1.455058
 C         1.051749        -0.096274         0.995852
 C        -0.031693        -0.154743        -0.031759
 O         0.549856        -0.825085         2.115689
 H         3.626443        -2.376025        -0.236263
 H         1.909847        -2.439133        -0.631355
 H         3.143269        -1.112307        -1.508434
 H         4.464213         0.550611         0.353985
 H         3.083156         2.557034         1.625136
 H         0.532821         1.996903         1.633813
 H         0.391861         0.447120        -0.878512
 H         0.032676        -1.197474        -0.376564
 H        -0.903263         0.166694         0.563065
 H         1.351689        -1.273797         2.394761
