19
Iteration:  3469
 C         2.859992        -1.712459        -0.587988
 C         2.476688        -0.663377         0.504583
 O         3.481917        -0.668379         1.604755
 C         3.295662         0.485174         0.620241
 C         2.708407         1.507606         1.418847
 C         1.422582         1.198022         1.627382
 C         1.126511        -0.204956         1.059084
 C         0.115270        -0.039497        -0.104565
 O         0.387666        -0.926119         2.032209
 H         2.171734        -1.913218        -1.307248
 H         3.638015        -1.260018        -1.191967
 H         3.207679        -2.643225        -0.079366
 H         4.045512         0.570584        -0.115467
 H         3.180310         2.423368         1.749256
 H         0.638635         1.743220         2.181079
 H         0.504303         0.689250        -0.800782
 H        -0.286528        -0.946078        -0.557754
 H        -0.726866         0.425464         0.404690
 H         1.208589        -1.287838         2.574653
