19
Iteration:  4836charge 0 multiplicity 1
 C         2.638567        -1.601511        -0.709003
 C         2.502550        -0.627209         0.457810
 O         3.313265        -0.783473         1.737885
 C         3.418073         0.452473         0.850933
 C         2.748548         1.484568         1.505050
 C         1.413399         1.322101         1.313419
 C         1.056363        -0.159932         0.914335
 C        -0.017369        -0.369884        -0.173299
 O         0.747746        -0.746651         2.171570
 H         3.416525        -2.355818        -0.570364
 H         1.750997        -2.090531        -0.840668
 H         2.951612        -1.050070        -1.567060
 H         4.399029         0.582454         0.458693
 H         3.221386         2.252059         2.091233
 H         0.658191         1.824915         1.966642
 H         0.381452         0.187815        -1.002411
 H         0.002573        -1.443391        -0.314127
 H        -0.872670         0.180163         0.206666
 H         1.552893        -0.474917         2.611452
