19
Iteration:  1835
 C         2.809112        -1.650344        -0.687637
 C         2.555230        -0.642174         0.436316
 O         3.275326        -0.914767         1.682031
 C         3.489815         0.282609         0.991670
 C         2.733268         1.439588         1.698894
 C         1.426976         1.241256         1.373866
 C         1.060510        -0.093742         0.811829
 C         0.024529        -0.037386        -0.228594
 O         0.549054        -0.694950         2.058049
 H         2.037795        -2.338906        -0.485692
 H         2.873054        -1.269776        -1.676255
 H         3.852207        -2.112521        -0.525447
 H         4.430539         0.321954         0.375391
 H         3.153520         2.258034         2.341448
 H         0.638503         1.955168         1.639251
 H         0.046470         0.717857        -0.987064
 H         0.089483        -0.979122        -0.688439
 H        -0.998598         0.119380         0.200908
 H         1.051883        -0.263088         2.709216
