19
Iteration:  3720
 C         2.747810        -1.749228        -0.532447
 C         2.562919        -0.629495         0.475305
 O         3.455144        -0.740378         1.566372
 C         3.463712         0.514204         0.727860
 C         2.662406         1.641459         1.418338
 C         1.349564         1.269042         1.572626
 C         1.117536        -0.115874         0.889668
 C        -0.153102        -0.097344         0.009121
 O         0.654180        -1.028615         1.991700
 H         2.674267        -2.682748        -0.083313
 H         2.006704        -1.680599        -1.293815
 H         3.791925        -1.535596        -0.848268
 H         4.442474         0.512500         0.144830
 H         3.079871         2.607106         1.777905
 H         0.599522         1.674771         2.242243
 H         0.049988         0.442853        -0.959271
 H        -0.471948        -1.109678        -0.184193
 H        -0.894392         0.368336         0.601142
 H         1.527355        -1.150617         2.439380
