19
Iteration:    19
 C         2.486346        -1.673351        -0.384157
 C         2.474799        -0.579478         0.598794
 O         3.472421        -0.882499         1.695582
 C         3.526117         0.419934         0.946383
 C         2.815402         1.601631         1.447541
 C         1.487537         1.426038         1.425928
 C         1.119843        -0.030261         0.954882
 C         0.071563         0.019376        -0.175504
 O         0.498430        -1.181162         1.769777
 H         1.954872        -2.563034         0.029648
 H         2.083005        -1.382681        -1.417936
 H         3.475873        -2.007800        -0.649204
 H         4.478703         0.445925         0.349361
 H         3.257491         2.604712         1.462934
 H         0.697356         2.181349         1.354046
 H        -0.284476        -0.978428        -0.459555
 H        -0.867617         0.413411         0.245365
 H         0.382340         0.498286        -1.134251
 H         1.076465        -1.272063         2.508413
