19
Iteration:  4700
 C         2.443296        -1.747995        -0.346971
 C         2.531665        -0.612611         0.576349
 O         3.548510        -0.693412         1.582903
 C         3.451904         0.526648         0.710736
 C         2.705431         1.633161         1.395584
 C         1.404915         1.288085         1.513890
 C         1.098560        -0.091548         0.985137
 C         0.086563        -0.055500        -0.155723
 O         0.622878        -1.159717         1.917557
 H         3.411884        -2.078458        -0.601628
 H         2.139270        -2.620043         0.220149
 H         1.939895        -1.563048        -1.268641
 H         4.337037         0.713478         0.139013
 H         3.192239         2.574195         1.678399
 H         0.607154         1.816614         2.039238
 H         0.335299         0.474274        -1.076298
 H        -0.121343        -0.988621        -0.645780
 H        -0.884753         0.321280         0.193576
 H         1.203639        -1.148498         2.660702
