19
Iteration:  1295charge 0 multiplicity 1
 C         2.689035        -1.543596        -0.659778
 C         2.565530        -0.683351         0.523089
 O         3.334971        -0.953222         1.715823
 C         3.539960         0.337604         1.013421
 C         2.778871         1.523044         1.462617
 C         1.407136         1.342215         1.401679
 C         1.073252        -0.103401         0.957693
 C         0.110396        -0.026519        -0.157751
 O         0.432957        -0.880030         1.942863
 H         2.081994        -2.445353        -0.496887
 H         2.356569        -1.024910        -1.533415
 H         3.800062        -1.847940        -0.772345
 H         4.521078         0.369231         0.601026
 H         3.277035         2.471767         1.570190
 H         0.649041         1.994266         1.870382
 H         0.398359         0.681663        -0.956514
 H         0.101492        -0.982109        -0.683281
 H        -0.946036         0.276219         0.288889
 H         1.059938        -1.184159         2.583895
