19
Iteration:  2432charge 0 multiplicity 1
 C         2.993255        -1.673146        -0.600216
 C         2.511037        -0.610955         0.381560
 O         3.190329        -0.905636         1.726513
 C         3.557377         0.297674         0.975912
 C         2.742394         1.521212         1.491148
 C         1.428855         1.255274         1.408317
 C         1.022665        -0.021096         0.911627
 C        -0.073771         0.022706        -0.118669
 O         0.540122        -0.888738         1.924798
 H         2.087659        -2.075625        -1.028513
 H         3.625672        -1.186745        -1.385538
 H         3.516457        -2.396644         0.071160
 H         4.606129         0.445795         0.593465
 H         3.166337         2.410345         1.929195
 H         0.711891         1.873652         2.040161
 H         0.032981         0.875778        -0.799381
 H        -0.260147        -0.894201        -0.757094
 H        -1.038938         0.267849         0.438394
 H         1.236269        -0.981304         2.574994
