19
Iteration:    92charge 0 multiplicity 1
 C         2.851721        -1.853488        -0.416090
 C         2.435867        -0.717189         0.525806
 O         3.476878        -0.806584         1.495723
 C         3.364089         0.425029         0.697210
 C         2.754338         1.514488         1.424389
 C         1.418986         1.296444         1.648573
 C         1.010970        -0.101951         1.096402
 C         0.288222         0.254806        -0.303577
 O         0.277865        -0.989817         2.030893
 H         2.385335        -2.798098        -0.080750
 H         2.554559        -1.924141        -1.488989
 H         3.953208        -1.880990        -0.220346
 H         4.140062         0.577226        -0.132173
 H         3.247062         2.375537         1.951341
 H         0.623148         1.912101         2.158563
 H         0.077313        -0.706431        -0.845673
 H        -0.707109         0.752766        -0.099706
 H         0.847939         0.922044        -0.997026
 H         0.863789        -1.174338         2.753227
