19
Iteration:   144charge 0 multiplicity 1
 C         2.469383        -1.597944        -0.604267
 C         2.623644        -0.641742         0.533279
 O         3.372447        -0.803216         1.781116
 C         3.591722         0.403942         0.912165
 C         2.830719         1.564662         1.461500
 C         1.546203         1.264761         1.513759
 C         1.088825        -0.109829         0.921897
 C         0.120338        -0.178078        -0.230866
 O         0.387882        -0.912110         1.901818
 H         1.960236        -2.516489        -0.322715
 H         1.849108        -1.116990        -1.350062
 H         3.429694        -1.847506        -1.143427
 H         4.629737         0.505873         0.513152
 H         3.247466         2.600283         1.678777
 H         0.664303         1.795632         1.946151
 H        -0.306439        -1.166643        -0.397181
 H        -0.730966         0.471268        -0.003121
 H         0.533477         0.280565        -1.096212
 H         0.872614        -0.898290         2.660903
