19
Iteration:  4647charge 0 multiplicity 1
 C         2.749032        -1.822868        -0.432815
 C         2.504389        -0.680714         0.538959
 O         3.466350        -0.678413         1.484138
 C         3.403298         0.523983         0.593014
 C         2.604411         1.630505         1.256789
 C         1.407945         1.240222         1.704127
 C         1.087142        -0.133421         1.122183
 C         0.168605         0.026204        -0.066519
 O         0.464065        -1.108330         2.019529
 H         3.577626        -2.410442        -0.047124
 H         1.836471        -2.395216        -0.630035
 H         3.091474        -1.300968        -1.303321
 H         4.205090         0.698689        -0.082474
 H         3.073519         2.593310         1.447717
 H         0.849046         1.919352         2.327413
 H         0.695140         0.336298        -1.012592
 H        -0.496983        -0.764211        -0.359338
 H        -0.365629         0.998122        -0.147247
 H         1.106755        -1.364719         2.657037
