19
Iteration:  2437charge 0 multiplicity 1
 C         2.995252        -1.660330        -0.617992
 C         2.516664        -0.631648         0.483001
 O         3.178297        -0.906554         1.738230
 C         3.535491         0.291476         0.938106
 C         2.734347         1.546117         1.468186
 C         1.450533         1.234978         1.446194
 C         1.035795        -0.088151         0.843653
 C        -0.090234         0.040907        -0.079362
 O         0.549502        -0.866411         1.906720
 H         2.102832        -2.137462        -1.183431
 H         3.676890        -1.124283        -1.280275
 H         3.560418        -2.410157        -0.092123
 H         4.562684         0.392572         0.640210
 H         3.102089         2.418199         2.050884
 H         0.724833         1.880942         1.841319
 H        -0.072163         0.909959        -0.784071
 H        -0.212647        -0.800914        -0.742493
 H        -1.029778         0.292209         0.388026
 H         1.358480        -0.727063         2.557149
