19
Iteration:   316charge 0 multiplicity 1
 C         2.800216        -1.871579        -0.287749
 C         2.540274        -0.599658         0.392515
 O         3.341030        -0.876347         1.637409
 C         3.548282         0.291396         0.816833
 C         2.830492         1.442125         1.455648
 C         1.438692         1.333063         1.530862
 C         1.024122         0.051153         0.884396
 C        -0.047915         0.235951        -0.148953
 O         0.452604        -0.932547         1.825549
 H         2.615593        -2.660586         0.445671
 H         2.143625        -2.031560        -1.115652
 H         3.853752        -2.006101        -0.719283
 H         4.551569         0.448467         0.335647
 H         3.419162         2.236619         1.876078
 H         0.767264         1.959254         2.058203
 H        -0.566417        -0.737198        -0.329994
 H        -0.839592         0.862213         0.363388
 H         0.202234         0.821184        -1.033463
 H         1.101968        -1.404676         2.475842
