19
Iteration:  1263
 C         2.966502        -1.599672        -0.650471
 C         2.436097        -0.768721         0.526279
 O         3.354349        -0.820296         1.624909
 C         3.421693         0.319205         0.804256
 C         2.771976         1.434405         1.540642
 C         1.464636         1.200387         1.567964
 C         1.036889        -0.137705         0.956139
 C         0.098657         0.074564        -0.225124
 O         0.349737        -0.820461         2.043248
 H         2.561444        -2.595331        -0.741687
 H         2.773996        -1.083955        -1.542088
 H         4.127273        -1.689132        -0.495122
 H         4.320899         0.430658         0.226139
 H         3.335107         2.336831         1.556300
 H         0.699472         1.715045         2.170063
 H         0.642460         0.336309        -1.166149
 H        -0.477577        -0.866159        -0.226307
 H        -0.789228         0.898032        -0.128436
 H         0.734526        -0.373934         2.922509
