19
Iteration:  3824
 C         2.593243        -1.822382        -0.520383
 C         2.484630        -0.551943         0.472979
 O         3.468871        -0.712410         1.573354
 C         3.432360         0.558095         0.741854
 C         2.677380         1.601783         1.503220
 C         1.326984         1.335258         1.577382
 C         1.127992        -0.064569         0.986747
 C         0.002269        -0.221494        -0.079179
 O         0.733618        -1.048331         1.913283
 H         1.883153        -2.483060         0.038077
 H         2.464044        -1.476532        -1.566958
 H         3.601679        -2.218230        -0.461233
 H         4.281151         0.788383         0.119679
 H         3.276346         2.492901         1.854281
 H         0.481704         1.831162         2.044021
 H         0.388602         0.117676        -1.044139
 H        -0.436180        -1.247779        -0.228175
 H        -0.765542         0.566715         0.174161
 H         1.414912        -1.079544         2.585311
