19
Iteration:  1919
 C         2.767325        -1.521195        -0.782718
 C         2.588650        -0.640162         0.512901
 O         3.195879        -0.945303         1.911258
 C         3.536817         0.323328         1.034790
 C         2.798731         1.537410         1.387866
 C         1.474693         1.223994         1.384586
 C         1.089707        -0.134066         0.903807
 C         0.013877         0.012181        -0.199376
 O         0.485357        -0.890645         2.003966
 H         2.324090        -2.490873        -0.984451
 H         2.416989        -0.896176        -1.642079
 H         3.856710        -1.669823        -0.880397
 H         4.607497         0.244211         0.723231
 H         3.257723         2.539057         1.574244
 H         0.698093         1.897726         1.728818
 H         0.468592         0.353193        -1.143902
 H        -0.475569        -0.959404        -0.378832
 H        -0.793552         0.673925         0.220504
 H         1.056466        -0.810035         2.746958
