19
Iteration:     7charge 0 multiplicity 1
 C         2.598988        -1.671948        -0.501199
 C         2.503429        -0.643559         0.542052
 O         3.354895        -0.847123         1.689750
 C         3.487662         0.353294         0.899330
 C         2.788643         1.591863         1.459109
 C         1.460003         1.299283         1.468305
 C         1.098123        -0.076780         0.910294
 C         0.087615        -0.015818        -0.198330
 O         0.521910        -0.991704         1.909830
 H         2.005214        -2.567439        -0.211208
 H         2.159322        -1.286086        -1.467185
 H         3.676461        -1.867217        -0.453389
 H         4.484504         0.653857         0.467989
 H         3.381888         2.503988         1.665812
 H         0.736384         2.118405         1.683872
 H        -0.016528        -1.094211        -0.415510
 H        -0.790330         0.514269         0.212588
 H         0.385130         0.614693        -1.065147
 H         1.214120        -1.077978         2.532483
