19
Iteration:  4943charge 0 multiplicity 1
 C         2.493072        -1.911105        -0.297482
 C         2.473876        -0.631749         0.518895
 O         3.534857        -0.692021         1.418961
 C         3.366668         0.588662         0.816423
 C         2.691794         1.677974         1.459375
 C         1.417965         1.254871         1.590962
 C         1.146283        -0.157699         1.051730
 C         0.191876         0.025200        -0.259589
 O         0.564904        -1.080631         1.955718
 H         3.536819        -1.911632        -0.796825
 H         2.539168        -2.784949         0.453184
 H         1.554404        -2.116156        -0.860591
 H         4.195778         0.903273         0.232000
 H         3.125691         2.713243         1.455055
 H         0.616971         1.991821         1.853350
 H         0.890484         0.459645        -1.042611
 H        -0.315325        -0.874232        -0.702760
 H        -0.787691         0.592095        -0.055544
 H         1.235551        -1.628226         2.401166
