19
Iteration:  1151charge 0 multiplicity 1
 C         2.760037        -1.763160        -0.481500
 C         2.499207        -0.638585         0.491710
 O         3.341449        -0.845973         1.657317
 C         3.493925         0.388091         0.863131
 C         2.782447         1.530635         1.403380
 C         1.451043         1.269803         1.569758
 C         1.098413        -0.110819         0.981743
 C         0.088420         0.193635        -0.181377
 O         0.415110        -0.973486         1.884386
 H         2.138201        -2.663391        -0.186972
 H         2.581693        -1.566516        -1.608648
 H         3.795278        -2.030196        -0.314710
 H         4.425589         0.484039         0.246584
 H         3.205822         2.453928         1.732598
 H         0.801339         1.801339         2.272362
 H         0.055818         1.256096        -0.612651
 H         0.250536        -0.463178        -1.150628
 H        -1.005039         0.004524         0.352120
 H         1.119787        -1.468189         2.337176
