19
Iteration:    22charge 0 multiplicity 1
 C         2.477836        -1.690134        -0.385613
 C         2.499412        -0.558706         0.618561
 O         3.480798        -0.871525         1.697693
 C         3.544465         0.402495         0.947161
 C         2.814904         1.611434         1.435394
 C         1.477074         1.441511         1.411295
 C         1.113235        -0.033655         0.980488
 C         0.060279         0.017229        -0.171057
 O         0.496629        -1.196336         1.732504
 H         1.902507        -2.532549         0.041274
 H         1.992047        -1.430866        -1.355643
 H         3.450599        -2.060449        -0.661410
 H         4.429493         0.435878         0.344136
 H         3.225481         2.605734         1.496525
 H         0.704530         2.194266         1.440968
 H        -0.265696        -0.958116        -0.488194
 H        -0.844367         0.507034         0.206828
 H         0.379872         0.538637        -1.078719
 H         1.108454        -1.368136         2.634705
