19
Iteration:  3936charge 0 multiplicity 1
 C         2.694026        -1.696533        -0.649432
 C         2.477953        -0.646819         0.443154
 O         3.429838        -0.681178         1.682464
 C         3.389604         0.460327         0.781793
 C         2.697478         1.569971         1.538102
 C         1.403905         1.322300         1.547481
 C         1.075075        -0.129611         0.902625
 C        -0.014394        -0.295250        -0.085091
 O         0.671629        -0.878730         2.006367
 H         3.088660        -2.496376        -0.132666
 H         1.794573        -2.170551        -1.150396
 H         3.277735        -1.450667        -1.568459
 H         4.395884         0.499583         0.251730
 H         3.212031         2.504902         1.784762
 H         0.575109         1.878011         2.091746
 H         0.404580         0.144071        -1.043529
 H        -0.198756        -1.302167        -0.378175
 H        -0.783356         0.285268         0.329420
 H         1.488104        -0.804915         2.551834
