19
Iteration:  2478charge 0 multiplicity 1
 C         2.765744        -1.552993        -0.675648
 C         2.500947        -0.662410         0.486348
 O         3.272519        -0.928770         1.773229
 C         3.581372         0.364504         1.080241
 C         2.738482         1.532027         1.413174
 C         1.418633         1.288756         1.390326
 C         1.030168        -0.071402         0.938681
 C         0.040941        -0.031959        -0.201363
 O         0.518348        -0.914364         1.984151
 H         1.840093        -1.767073        -1.342216
 H         3.508631        -1.011700        -1.336165
 H         3.217212        -2.407307        -0.221364
 H         4.599134         0.334786         0.637249
 H         3.256080         2.359844         1.899639
 H         0.735994         2.090877         1.423555
 H         0.548800         0.669780        -0.943598
 H         0.070615        -1.088330        -0.641370
 H        -1.001478         0.258117         0.177936
 H         1.207658        -1.218094         2.553053
