19
Iteration:  1417charge 0 multiplicity 1
 C         2.644099        -1.625043        -0.577994
 C         2.501061        -0.801208         0.656011
 O         3.465412        -0.809860         1.678730
 C         3.483423         0.369109         0.812853
 C         2.720373         1.574483         1.327085
 C         1.478454         1.266790         1.646395
 C         1.138103        -0.163376         1.051614
 C         0.333101         0.142770        -0.196544
 O         0.217959        -0.989892         1.821619
 H         2.384355        -2.651774        -0.372872
 H         2.098080        -1.129439        -1.404902
 H         3.675246        -1.663118        -0.756798
 H         4.368711         0.482408         0.105118
 H         3.272274         2.490839         1.555966
 H         0.755256         1.736917         2.330557
 H         0.834436         0.644217        -1.040718
 H        -0.062731        -0.829268        -0.458036
 H        -0.617545         0.568170         0.040499
 H         0.331718        -0.889309         2.860052
