19
Iteration:   132
 C         2.548158        -1.624340        -0.618692
 C         2.611365        -0.693151         0.602495
 O         3.502417        -0.795460         1.757310
 C         3.612897         0.385771         0.842368
 C         2.752749         1.589015         1.396710
 C         1.428271         1.197584         1.546202
 C         1.199148        -0.137478         0.936020
 C         0.123781        -0.075730        -0.225987
 O         0.242958        -0.843500         1.893976
 H         2.110686        -2.530097        -0.208040
 H         1.849063        -1.165522        -1.244012
 H         3.428215        -1.931599        -1.245820
 H         4.523338         0.396356         0.255403
 H         3.249092         2.382858         2.057007
 H         0.813853         1.797831         2.272080
 H        -0.089482        -1.114831        -0.444322
 H        -0.761100         0.401631         0.159574
 H         0.472431         0.344756        -1.124096
 H         0.724566        -0.922027         2.848647
