19
Iteration:  1099charge 0 multiplicity 1
 C         2.680512        -1.559171        -0.625220
 C         2.546005        -0.680530         0.495616
 O         3.402588        -0.905761         1.678265
 C         3.568041         0.372058         0.905632
 C         2.751884         1.520575         1.428954
 C         1.488062         1.185764         1.543882
 C         1.105524        -0.142595         0.943808
 C         0.143389        -0.061196        -0.268195
 O         0.293792        -0.795498         2.031321
 H         2.124444        -2.467856        -0.458086
 H         2.255058        -1.027416        -1.464283
 H         3.754348        -1.725006        -0.766380
 H         4.595958         0.343370         0.483558
 H         3.134360         2.348698         2.030361
 H         0.660770         1.668217         2.021735
 H         0.416019         0.870405        -0.655831
 H         0.126506        -0.838602        -0.962971
 H        -0.897263         0.001412        -0.030572
 H         0.844196        -0.444346         2.854597
