19
Iteration:  3738
 C         2.890176        -1.606549        -0.540698
 C         2.440612        -0.563856         0.445316
 O         3.451783        -0.687520         1.566834
 C         3.435810         0.471865         0.690303
 C         2.740547         1.555171         1.290348
 C         1.462677         1.211436         1.546355
 C         1.008213        -0.178276         1.071979
 C        -0.133682        -0.061867        -0.010493
 O         0.559944        -1.101926         2.063763
 H         2.482695        -2.611254        -0.226393
 H         2.445079        -1.516071        -1.587192
 H         3.952129        -1.809536        -0.472745
 H         4.306612         0.716946         0.088166
 H         3.205083         2.515153         1.640355
 H         0.818352         1.990769         1.975899
 H         0.173012         0.560743        -0.821860
 H        -0.292784        -1.103777        -0.318895
 H        -1.101868         0.261599         0.444216
 H         1.252373        -1.175909         2.766549
