19
Iteration:  4710charge 0 multiplicity 1
 C         2.536931        -1.767692        -0.364967
 C         2.437941        -0.521724         0.501529
 O         3.510344        -0.741231         1.574772
 C         3.470968         0.492730         0.775602
 C         2.716344         1.646575         1.380072
 C         1.431295         1.299132         1.561089
 C         1.114453        -0.125667         0.962530
 C         0.073161        -0.113703        -0.165858
 O         0.608328        -1.100963         1.938602
 H         3.534020        -1.780975        -0.736144
 H         2.165213        -2.654704         0.173821
 H         1.823295        -1.803158        -1.193429
 H         4.202755         0.597245         0.018600
 H         2.988653         2.638731         1.722383
 H         0.698484         2.078088         1.822231
 H         0.456293         0.754321        -0.709856
 H        -0.022551        -1.111039        -0.547027
 H        -0.845313         0.134940         0.346386
 H         1.296088        -1.161376         2.582383
