19
Iteration:  3684charge 0 multiplicity 1
 C         2.474664        -1.659209        -0.529666
 C         2.485205        -0.555972         0.443836
 O         3.368666        -0.716325         1.573467
 C         3.580389         0.494032         0.783337
 C         2.632482         1.652033         1.542477
 C         1.338960         1.299293         1.454679
 C         1.103446        -0.171131         0.943415
 C         0.058657        -0.179183        -0.190972
 O         0.825006        -1.092383         2.120663
 H         2.848725        -2.552803        -0.151959
 H         1.492918        -1.935474        -0.961791
 H         2.943171        -1.496702        -1.472193
 H         4.586223         0.631783         0.435140
 H         2.936049         2.651630         1.862679
 H         0.616999         1.960134         1.978494
 H         0.358542         0.286373        -1.071331
 H        -0.117896        -1.231473        -0.402371
 H        -0.910052         0.267153         0.084804
 H         1.630208        -1.065106         2.726345
