19
Iteration:  2542
 C         2.762261        -1.726649        -0.485179
 C         2.583014        -0.609273         0.475912
 O         3.373519        -0.876059         1.661655
 C         3.501148         0.420518         0.868737
 C         2.722688         1.542487         1.600622
 C         1.420676         1.228117         1.515486
 C         1.073249        -0.119109         0.884918
 C         0.058681         0.064847        -0.290069
 O         0.438738        -0.892026         1.946748
 H         1.921128        -2.205142        -1.083782
 H         3.558614        -1.706500        -1.263512
 H         3.143365        -2.476950         0.163629
 H         4.352367         0.745536         0.246841
 H         2.984092         2.478772         2.060994
 H         0.623738         1.573541         2.130073
 H         0.622318         0.291402        -1.195078
 H        -0.698669        -0.674857        -0.640068
 H        -0.588223         0.899209         0.035015
 H         1.183120        -1.113852         2.464960
