19
Iteration:  3143charge 0 multiplicity 1
 C         2.733232        -1.767654        -0.419114
 C         2.487841        -0.602743         0.465883
 O         3.407635        -0.741432         1.570936
 C         3.421950         0.487190         0.729253
 C         2.621514         1.639822         1.398683
 C         1.393659         1.262981         1.639222
 C         1.139587        -0.172510         0.933726
 C         0.021211         0.022437        -0.060708
 O         0.632453        -1.074961         1.845277
 H         3.160618        -1.633640        -1.361285
 H         3.533805        -2.411883         0.082966
 H         1.827459        -2.430855        -0.502170
 H         4.444554         0.635832         0.266945
 H         3.104349         2.488296         1.848171
 H         0.590052         1.682311         2.291345
 H         0.364637         0.680417        -0.878639
 H        -0.474109        -0.949272        -0.338112
 H        -0.736561         0.643439         0.554598
 H         1.277866        -0.943939         2.617525
