19
Iteration:  3926charge 0 multiplicity 1
 C         2.630675        -1.688821        -0.685679
 C         2.512984        -0.612241         0.458709
 O         3.376897        -0.644944         1.669990
 C         3.497705         0.481479         0.825873
 C         2.730822         1.595090         1.435433
 C         1.418743         1.251262         1.472288
 C         1.127653        -0.186780         0.983601
 C         0.043842        -0.268929        -0.096526
 O         0.588319        -0.895431         2.065324
 H         3.124687        -2.575261        -0.345408
 H         1.622895        -2.005164        -1.046466
 H         3.363903        -1.298789        -1.430448
 H         4.389050         0.636620         0.158365
 H         3.037316         2.388733         2.121975
 H         0.674341         1.894280         2.054457
 H         0.138339         0.358323        -1.002277
 H        -0.062915        -1.301971        -0.410511
 H        -0.960828        -0.098145         0.183840
 H         1.245245        -1.062742         2.726970
