19
Iteration:  3698charge 0 multiplicity 1
 C         2.536741        -1.808490        -0.600442
 C         2.564498        -0.541257         0.365943
 O         3.400258        -0.673006         1.610327
 C         3.432573         0.548057         0.874913
 C         2.662171         1.585917         1.499711
 C         1.348299         1.231361         1.460715
 C         1.162076        -0.089064         0.909240
 C         0.000131        -0.148596        -0.033149
 O         0.777143        -1.052089         2.039908
 H         2.722837        -2.604477         0.058132
 H         1.542896        -1.888584        -0.947688
 H         3.275939        -1.650951        -1.409721
 H         4.375882         0.775757         0.274313
 H         3.126419         2.477487         1.999210
 H         0.430060         1.692509         1.790064
 H         0.328632         0.366971        -0.993449
 H        -0.334629        -1.135704        -0.311528
 H        -0.822647         0.368042         0.388041
 H         1.608293        -0.998105         2.521812
