19
Iteration:  4243
 C         2.795130        -1.601158        -0.679705
 C         2.533036        -0.658990         0.547939
 O         3.376271        -0.813483         1.648471
 C         3.471523         0.432718         0.838245
 C         2.576043         1.653292         1.206742
 C         1.299481         1.283756         1.493478
 C         1.144968        -0.137490         0.974388
 C        -0.106794        -0.166084         0.010704
 O         0.775268        -0.979043         2.079402
 H         2.226063        -1.203233        -1.470801
 H         3.829144        -1.787036        -0.702227
 H         2.347889        -2.521340        -0.345738
 H         4.494796         0.592193         0.435401
 H         2.969735         2.633792         1.346978
 H         0.454602         1.879029         1.821545
 H        -0.013518         0.629434        -0.700912
 H        -0.374013        -1.126435        -0.418654
 H        -0.979399         0.060891         0.608901
 H         1.626711        -1.019036         2.576833
