19
Iteration:  2120charge 0 multiplicity 1
 C         2.562507        -1.562702        -0.673792
 C         2.525220        -0.597715         0.476917
 O         3.272374        -0.935312         1.728469
 C         3.512294         0.239636         1.066618
 C         2.727514         1.569650         1.604787
 C         1.402381         1.434044         1.401074
 C         1.105777        -0.048125         0.871322
 C         0.186438        -0.200117        -0.288405
 O         0.604145        -0.837482         1.995695
 H         2.214686        -2.539967        -0.339077
 H         2.091136        -1.114471        -1.535645
 H         3.529944        -1.715304        -1.070170
 H         4.497881         0.348963         0.641492
 H         3.252426         2.382440         2.163104
 H         0.566465         2.091874         1.615843
 H         0.265382         0.574007        -1.020852
 H         0.129899        -1.223963        -0.642480
 H        -0.739810        -0.073990         0.238305
 H         1.460477        -1.245636         2.364540
