19
Iteration:  4760
 C         2.867830        -1.572324        -0.655398
 C         2.510737        -0.700677         0.475321
 O         3.341617        -0.773398         1.714182
 C         3.406318         0.347282         0.855281
 C         2.728454         1.525685         1.329592
 C         1.420935         1.224522         1.398024
 C         1.087288        -0.220179         0.919008
 C        -0.144923        -0.115329        -0.064160
 O         0.650035        -0.786072         2.118557
 H         3.864985        -1.241018        -1.044772
 H         2.806584        -2.604020        -0.287913
 H         2.117091        -1.602600        -1.488981
 H         4.359493         0.389393         0.336698
 H         3.178954         2.407635         1.696717
 H         0.534926         1.732079         1.792431
 H         0.234557         0.690435        -0.651030
 H        -0.370306        -1.127993        -0.469344
 H        -1.013873         0.314813         0.470098
 H         1.462213        -0.741689         2.731068
