19
Iteration:  1900
 C         2.713988        -1.352868        -0.734543
 C         2.506426        -0.733708         0.585593
 O         3.155477        -0.922500         1.783757
 C         3.545437         0.230637         1.128485
 C         2.848656         1.550751         1.406082
 C         1.513027         1.408883         1.320744
 C         1.092934        -0.075040         0.921226
 C         0.025348        -0.166204        -0.269657
 O         0.540249        -0.968130         2.042734
 H         1.877641        -2.087060        -0.887059
 H         2.554865        -0.604101        -1.511121
 H         3.738399        -1.932435        -0.934127
 H         4.612816         0.258369         0.775802
 H         3.359770         2.440072         1.829980
 H         0.770631         2.189220         1.589012
 H         0.516055        -0.051374        -1.238942
 H        -0.434904        -1.132271        -0.223962
 H        -0.695703         0.721515        -0.087161
 H         1.173262        -0.778572         2.677018
