19
Iteration:   222
 C         2.849620        -1.609750        -0.747740
 C         2.507962        -0.695353         0.497143
 O         3.355420        -0.882068         1.760070
 C         3.506286         0.266237         0.925372
 C         2.848518         1.408868         1.451209
 C         1.519106         1.341496         1.326521
 C         1.028157        -0.091092         0.911196
 C        -0.113587        -0.091527        -0.055835
 O         0.421553        -0.690087         2.030150
 H         2.092220        -2.363198        -0.964697
 H         3.324263        -1.057291        -1.593144
 H         3.665097        -2.217339        -0.388812
 H         4.571424         0.366536         0.531219
 H         3.238638         2.184381         2.033764
 H         0.754652         1.917918         1.757581
 H        -0.202920        -0.955172        -0.719784
 H        -1.047914         0.011648         0.504661
 H        -0.057363         0.795679        -0.707394
 H         1.033756        -0.740198         2.708358
