19
Iteration:  1601
 C         2.739444        -1.645121        -0.595036
 C         2.523319        -0.561851         0.405621
 O         3.221936        -0.978421         1.671305
 C         3.540191         0.311880         1.043543
 C         2.813068         1.428640         1.731294
 C         1.471661         1.423835         1.452313
 C         1.141347         0.027490         0.742029
 C        -0.039833        -0.173657        -0.206310
 O         0.516190        -0.769946         1.908487
 H         2.232405        -2.633954        -0.346662
 H         2.638934        -1.360671        -1.716807
 H         3.786630        -1.948075        -0.608750
 H         4.459620         0.468338         0.420222
 H         3.388408         2.098381         2.399487
 H         0.784986         2.179695         1.773989
 H         0.205513         0.124069        -1.281013
 H        -0.353231        -1.259969        -0.137420
 H        -0.838220         0.429142         0.256006
 H         1.169409        -0.721276         2.578113
