19
Iteration:  3710
 C         2.663878        -1.751463        -0.561281
 C         2.525112        -0.632853         0.429629
 O         3.444973        -0.705932         1.593416
 C         3.415050         0.525314         0.794984
 C         2.615215         1.630976         1.455105
 C         1.371468         1.265428         1.543850
 C         1.137502        -0.210608         0.931971
 C        -0.072421        -0.125147        -0.000083
 O         0.756241        -0.954884         1.927516
 H         2.726928        -2.705268        -0.004303
 H         1.789469        -1.869831        -1.150359
 H         3.508840        -1.915031        -1.296582
 H         4.456512         0.862330         0.458156
 H         3.125131         2.461889         1.965134
 H         0.666942         1.879460         2.082995
 H         0.042834         0.481754        -0.969020
 H        -0.496444        -1.120589        -0.160083
 H        -0.795997         0.417669         0.575995
 H         1.455456        -1.200786         2.522617
