19
Iteration:  2992charge 0 multiplicity 1
 C         2.694043        -1.475088        -0.643665
 C         2.545268        -0.606940         0.522645
 O         3.248832        -0.786781         1.686649
 C         3.505900         0.389857         0.986467
 C         2.684240         1.561068         1.339331
 C         1.384589         1.259663         1.341467
 C         1.118335        -0.196124         0.960629
 C         0.019305        -0.095118        -0.052484
 O         0.678197        -1.062226         2.030588
 H         2.492328        -0.937518        -1.527060
 H         3.721440        -1.993592        -0.729558
 H         1.952071        -2.349997        -0.707131
 H         4.571599         0.548407         0.677296
 H         3.120169         2.561104         1.509144
 H         0.619076         2.021554         1.527928
 H         0.395962         0.335540        -0.990548
 H        -0.296854        -1.105345        -0.378968
 H        -0.700458         0.591701         0.471959
 H         1.430889        -1.009701         2.721174
