19
Iteration:  3001charge 0 multiplicity 1
 C         2.725793        -1.589609        -0.699445
 C         2.481856        -0.571141         0.459000
 O         3.316103        -0.831785         1.687738
 C         3.557669         0.420020         1.021239
 C         2.714857         1.632132         1.416863
 C         1.405564         1.327675         1.382375
 C         1.085886        -0.157037         0.961223
 C        -0.034020        -0.192754        -0.069275
 O         0.648259        -1.028191         2.012427
 H         2.506881        -1.089351        -1.622211
 H         3.822909        -1.820007        -0.722332
 H         2.023807        -2.467932        -0.625000
 H         4.506421         0.639046         0.443456
 H         3.233305         2.532756         1.823872
 H         0.531935         1.949891         1.453656
 H         0.456387         0.359166        -0.910795
 H        -0.639565        -1.113802        -0.225656
 H        -0.878182         0.525124         0.242463
 H         1.317420        -1.059548         2.778172
