19
Iteration:  1106charge 0 multiplicity 1
 C         2.746344        -1.565744        -0.621341
 C         2.510119        -0.648939         0.541456
 O         3.473697        -0.866534         1.688248
 C         3.587863         0.295644         0.864057
 C         2.767867         1.476148         1.443674
 C         1.443603         1.185702         1.515119
 C         1.044198        -0.138541         0.930351
 C         0.104646        -0.035568        -0.225321
 O         0.256243        -0.791323         2.019957
 H         2.255140        -2.590093        -0.543048
 H         2.393960        -1.134615        -1.646431
 H         3.789567        -1.742949        -0.755673
 H         4.600598         0.453657         0.449872
 H         3.255982         2.311661         1.868975
 H         0.741879         1.761005         2.154645
 H         0.324280         1.007652        -0.671446
 H         0.343456        -0.680317        -1.157517
 H        -0.992528         0.024219         0.243371
 H         0.708063        -0.581402         2.851038
