19
Iteration:  2322
 C         2.877604        -1.775522        -0.363675
 C         2.496535        -0.654198         0.484743
 O         3.391162        -0.792310         1.678308
 C         3.494950         0.359659         0.765257
 C         2.796340         1.465704         1.438155
 C         1.461701         1.197146         1.675643
 C         1.012208        -0.046679         0.943334
 C         0.044531         0.235223        -0.219197
 O         0.306384        -0.960816         1.802574
 H         3.071177        -2.623736         0.249598
 H         2.276162        -2.165252        -1.164638
 H         3.900843        -1.616543        -0.887638
 H         4.273997         0.612512         0.076664
 H         3.211040         2.476655         1.640931
 H         0.734266         1.780560         2.238869
 H         0.575630         1.015564        -0.800524
 H         0.066924        -0.766654        -0.688858
 H        -0.957684         0.589673         0.131435
 H         1.029765        -1.495438         2.314354
