19
Iteration:   507
 C         2.620358        -1.500452        -0.710630
 C         2.574037        -0.676062         0.557342
 O         3.180621        -1.017725         1.846379
 C         3.525537         0.259092         1.013456
 C         2.835310         1.430735         1.449184
 C         1.421786         1.379922         1.319086
 C         1.049748        -0.046927         0.937650
 C         0.109631        -0.120179        -0.301726
 O         0.591001        -0.749358         2.061003
 H         2.271227        -2.520837        -0.656896
 H         2.090071        -0.957626        -1.444079
 H         3.669683        -1.495079        -1.017333
 H         4.592912         0.258228         0.727406
 H         3.247357         2.415911         1.780385
 H         0.690806         2.148610         1.635131
 H         0.194946        -1.054566        -0.839976
 H        -0.896422         0.017658        -0.007443
 H         0.347852         0.617567        -1.031276
 H         1.363407        -0.743184         2.674472
