19
Iteration:  4440charge 0 multiplicity 1
 C         2.563016        -1.767365        -0.563602
 C         2.479397        -0.612375         0.454540
 O         3.382257        -0.640290         1.605413
 C         3.440682         0.521707         0.757182
 C         2.666689         1.685454         1.349356
 C         1.398947         1.244251         1.470719
 C         1.161721        -0.195315         0.986333
 C        -0.015898        -0.135228        -0.069611
 O         0.789924        -1.078304         2.129543
 H         2.833111        -1.419251        -1.592498
 H         3.265020        -2.571080        -0.253830
 H         1.493396        -2.025292        -0.589775
 H         4.345567         0.692029         0.148581
 H         2.958324         2.682825         1.626952
 H         0.674713         1.794687         2.055466
 H         0.109816         0.664768        -0.770777
 H         0.065874        -1.048778        -0.630509
 H        -0.897181         0.030849         0.549403
 H         1.630143        -1.062513         2.577810
