19
Iteration:  1619charge 0 multiplicity 1
 C         2.749048        -1.637120        -0.555290
 C         2.547312        -0.609143         0.493072
 O         3.150471        -0.864392         1.725378
 C         3.551609         0.343473         0.975051
 C         2.854439         1.456282         1.639856
 C         1.509011         1.294238         1.404720
 C         1.018743        -0.057959         0.807468
 C        -0.088211        -0.004531        -0.218998
 O         0.625534        -0.821368         1.866236
 H         2.191157        -2.530504        -0.341677
 H         2.544174        -1.277730        -1.520436
 H         3.811385        -2.112331        -0.604582
 H         4.626978         0.218175         0.864656
 H         3.307533         2.188996         2.260988
 H         0.676344         1.738673         1.918708
 H         0.259247         0.168352        -1.239429
 H        -0.407423        -1.019674        -0.291241
 H        -0.968709         0.569554         0.203403
 H         1.395506        -1.252084         2.227709
