19
Iteration:   265charge 0 multiplicity 1
 C         2.465501        -1.561935        -0.684904
 C         2.497094        -0.631164         0.531859
 O         3.268301        -0.952777         1.774939
 C         3.532813         0.307776         0.949109
 C         2.785115         1.547808         1.361240
 C         1.478177         1.326245         1.441702
 C         1.092389        -0.062604         0.968460
 C         0.257345        -0.123865        -0.221575
 O         0.525277        -0.803176         2.044506
 H         1.918663        -2.439143        -0.390840
 H         2.091795        -1.179694        -1.632338
 H         3.430391        -1.968239        -0.941199
 H         4.592924         0.279107         0.541957
 H         3.320017         2.390452         1.711351
 H         0.797843         2.052566         1.859865
 H         0.018809        -1.154637        -0.344461
 H        -0.681265         0.391877        -0.274910
 H         0.871187         0.381464        -0.947778
 H         1.196269        -1.150922         2.663087
