19
Iteration:  4014
 C         2.672554        -1.557957        -0.535316
 C         2.510722        -0.574345         0.521187
 O         3.413890        -0.712784         1.684025
 C         3.436314         0.485828         0.752770
 C         2.699890         1.610952         1.234320
 C         1.421624         1.256928         1.530432
 C         1.137839        -0.207152         1.056499
 C        -0.005938        -0.206245        -0.137497
 O         0.581317        -1.073421         2.025069
 H         2.811329        -2.613846        -0.277086
 H         1.848737        -1.444146        -1.210946
 H         3.565504        -1.302945        -1.149805
 H         4.346706         0.551948         0.222497
 H         3.234490         2.533729         1.449693
 H         0.806544         1.775208         2.241664
 H         0.534712         0.199335        -0.961623
 H        -0.440895        -1.184455        -0.142802
 H        -0.710231         0.550590         0.122342
 H         1.164594        -1.050897         2.790818
