19
Iteration:  3802charge 0 multiplicity 1
 C         2.469224        -1.684346        -0.516080
 C         2.494814        -0.566430         0.532864
 O         3.524887        -0.650323         1.526379
 C         3.448154         0.565928         0.807963
 C         2.670575         1.600022         1.438396
 C         1.355200         1.251307         1.441627
 C         1.140424        -0.191831         1.047077
 C         0.113275        -0.132985        -0.192970
 O         0.669838        -1.127488         2.087674
 H         1.494399        -2.275605        -0.360184
 H         2.733846        -1.257519        -1.530150
 H         3.256677        -2.424754        -0.349452
 H         4.288969         0.657339         0.165386
 H         3.050212         2.604870         1.795511
 H         0.586022         1.850057         1.937433
 H         0.331785         0.408310        -1.094056
 H        -0.194158        -1.168654        -0.513326
 H        -0.865691         0.334235         0.202994
 H         1.473274        -1.248041         2.712880
