19
Iteration:  4691
 C         2.467139        -1.817133        -0.392311
 C         2.564828        -0.671967         0.593774
 O         3.553782        -0.602446         1.610530
 C         3.468591         0.540772         0.660040
 C         2.672195         1.603783         1.376399
 C         1.345476         1.261676         1.531995
 C         1.149742        -0.159542         1.049257
 C         0.061432        -0.013437        -0.189625
 O         0.615461        -1.139760         1.891317
 H         3.400353        -2.252908        -0.639150
 H         1.668394        -2.379535         0.107134
 H         1.919542        -1.346623        -1.164053
 H         4.456596         0.798073         0.234635
 H         3.338221         2.454299         1.667935
 H         0.672252         1.720782         2.235462
 H         0.477190         0.600884        -1.048301
 H        -0.177214        -1.077144        -0.221854
 H        -0.817481         0.640768         0.089833
 H         1.172286        -1.081568         2.644582
