19
Iteration:  1932
 C         2.847357        -1.553734        -0.656522
 C         2.523265        -0.753538         0.521063
 O         3.249221        -0.885028         1.768481
 C         3.480729         0.277708         0.967373
 C         2.734822         1.465733         1.428918
 C         1.417914         1.254336         1.455534
 C         1.110628        -0.119077         0.893411
 C         0.085526         0.042566        -0.120396
 O         0.467379        -0.817244         1.903656
 H         2.379098        -2.513310        -0.418139
 H         2.400167        -1.071511        -1.533486
 H         3.984294        -1.690040        -0.870069
 H         4.529731         0.476762         0.627145
 H         3.207906         2.403712         1.754964
 H         0.649837         1.976707         1.775063
 H         0.391450         0.691725        -0.943582
 H        -0.348477        -0.885646        -0.459298
 H        -0.775423         0.650316         0.388992
 H         1.265962        -1.044596         2.551535
