19
Iteration:  2325
 C         2.877076        -1.756405        -0.377936
 C         2.478656        -0.646514         0.478219
 O         3.394999        -0.814635         1.690749
 C         3.505913         0.362581         0.755716
 C         2.752142         1.460941         1.443911
 C         1.450499         1.223330         1.677812
 C         1.028413        -0.070555         0.964538
 C         0.067527         0.222270        -0.215492
 O         0.330223        -0.943566         1.789432
 H         3.068093        -2.627175         0.286279
 H         2.251143        -2.162075        -1.205328
 H         3.838842        -1.645913        -0.877200
 H         4.265153         0.553024        -0.036942
 H         3.226651         2.401006         1.665751
 H         0.710639         1.900226         2.175142
 H         0.602698         0.977715        -0.732387
 H         0.069650        -0.820602        -0.591371
 H        -0.902841         0.619653         0.120304
 H         0.894495        -1.478560         2.287171
