19
Iteration:  4109charge 0 multiplicity 1
 C         2.622272        -1.743685        -0.518355
 C         2.490329        -0.630353         0.531860
 O         3.384072        -0.720388         1.671796
 C         3.418835         0.547201         0.680402
 C         2.660245         1.730555         1.252349
 C         1.410767         1.337832         1.586333
 C         1.206039        -0.135126         1.021076
 C         0.020965        -0.104155        -0.006214
 O         0.654340        -1.165433         1.941027
 H         1.920294        -2.215447        -1.078940
 H         3.367115        -1.373077        -1.251380
 H         3.134759        -2.628389        -0.091190
 H         4.339228         0.653058         0.135087
 H         2.903620         2.751780         1.478977
 H         0.587484         1.921913         1.964945
 H         0.139210         0.649237        -0.800667
 H         0.070412        -1.135283        -0.245853
 H        -0.912232         0.041508         0.474192
 H         1.444783        -1.384347         2.537530
