19
Iteration:  3655charge 0 multiplicity 1
 C         2.653589        -1.570915        -0.665273
 C         2.458817        -0.633900         0.484901
 O         3.449641        -0.790082         1.675933
 C         3.394660         0.431266         0.744628
 C         2.646207         1.637257         1.363737
 C         1.358182         1.274096         1.560740
 C         1.113159        -0.138870         0.994386
 C         0.095951        -0.176494        -0.069174
 O         0.661942        -0.980151         2.091885
 H         3.521786        -2.221906        -0.461879
 H         1.805727        -2.232315        -0.847870
 H         2.744783        -0.937522        -1.613449
 H         4.304187         0.605748         0.073523
 H         3.124843         2.638376         1.594037
 H         0.632627         1.875691         2.103603
 H         0.470360         0.103548        -1.120979
 H        -0.075381        -1.257923        -0.130564
 H        -0.847557         0.289302         0.116179
 H         1.449348        -1.273953         2.540678
