19
Iteration:   601charge 0 multiplicity 1
 C         2.654848        -1.710383        -0.549065
 C         2.543676        -0.659508         0.510837
 O         3.220588        -0.841371         1.841006
 C         3.522597         0.372999         0.906318
 C         2.718456         1.556321         1.220301
 C         1.499306         1.254657         1.574104
 C         1.115990        -0.102431         1.009718
 C         0.189764         0.220952        -0.207384
 O         0.458086        -1.061555         1.887993
 H         1.893460        -2.544228        -0.446313
 H         2.416004        -1.162670        -1.548269
 H         3.647798        -2.140690        -0.554212
 H         4.569630         0.382269         0.718857
 H         3.172323         2.581453         1.163099
 H         0.870684         2.052533         1.968509
 H        -0.581730        -0.588783        -0.248112
 H        -0.271866         1.242037        -0.090336
 H         0.808187         0.073950        -1.140312
 H         1.233049        -1.513320         2.440213
