19
Iteration:  2440
 C         2.975641        -1.644488        -0.630611
 C         2.523384        -0.658668         0.538425
 O         3.173105        -0.903627         1.745778
 C         3.507958         0.307808         0.927040
 C         2.743211         1.550647         1.454643
 C         1.461195         1.230143         1.468839
 C         1.059764        -0.130980         0.801828
 C        -0.111212         0.062670        -0.078342
 O         0.561121        -0.853711         1.905446
 H         2.253721        -2.127597        -1.229776
 H         3.682431        -1.112224        -1.232451
 H         3.605994        -2.476348        -0.193182
 H         4.542452         0.322584         0.645876
 H         3.090286         2.392257         2.083222
 H         0.642579         1.932981         1.744102
 H        -0.055032         0.898532        -0.753452
 H        -0.193247        -0.781891        -0.712388
 H        -1.024925         0.245843         0.420216
 H         1.340720        -0.654944         2.523032
