19
Iteration:  4503charge 0 multiplicity 1
 C         2.769257        -1.525379        -0.704476
 C         2.580395        -0.674539         0.483404
 O         3.501173        -0.779270         1.571164
 C         3.447024         0.421698         0.752283
 C         2.695163         1.553789         1.361687
 C         1.342573         1.372020         1.385130
 C         1.064345        -0.178161         1.028871
 C        -0.057903        -0.311435         0.030870
 O         0.563565        -0.892430         2.205705
 H         1.967832        -1.461181        -1.404480
 H         3.714483        -1.422492        -1.204523
 H         2.766223        -2.567481        -0.449030
 H         4.411734         0.623332         0.207352
 H         3.053654         2.481544         1.774134
 H         0.665294         2.060540         1.881944
 H         0.076023         0.041312        -1.000971
 H        -0.608288        -1.260197         0.124377
 H        -0.836115         0.494062         0.229152
 H         1.230076        -1.004878         2.859379
