19
Iteration:  3474
 C         2.898624        -1.701514        -0.590511
 C         2.476348        -0.728136         0.499447
 O         3.487309        -0.650134         1.603678
 C         3.276617         0.463707         0.652076
 C         2.696462         1.553097         1.428351
 C         1.440634         1.153869         1.639089
 C         1.114105        -0.234434         0.998270
 C         0.079497        -0.031288        -0.079161
 O         0.401482        -0.879527         2.023223
 H         2.041066        -1.936748        -1.429566
 H         3.696190        -1.198622        -1.185650
 H         3.272628        -2.529104         0.028911
 H         4.069805         0.613263        -0.144295
 H         3.343988         2.436721         1.582969
 H         0.723354         1.620523         2.301095
 H         0.528854         0.727803        -0.793403
 H        -0.326971        -1.003194        -0.432907
 H        -0.770602         0.512925         0.384139
 H         0.970171        -1.336680         2.586658
