19
Iteration:  1297
 C         2.661393        -1.547650        -0.657489
 C         2.574861        -0.685078         0.525648
 O         3.327609        -0.938933         1.722367
 C         3.530383         0.323670         1.021349
 C         2.786868         1.526894         1.478178
 C         1.407971         1.330485         1.397021
 C         1.088944        -0.087793         0.941984
 C         0.114563        -0.026644        -0.158769
 O         0.438541        -0.883407         1.935053
 H         2.094730        -2.463692        -0.517996
 H         2.344426        -1.006176        -1.529133
 H         3.717644        -1.862512        -0.800461
 H         4.558785         0.416878         0.608405
 H         3.234369         2.506938         1.547274
 H         0.638467         2.047130         1.849114
 H         0.373830         0.701484        -0.947837
 H         0.094977        -1.008963        -0.639757
 H        -0.919862         0.187735         0.276149
 H         1.180803        -1.239045         2.563420
