19
Iteration:  4077
 C         2.577442        -1.789759        -0.444490
 C         2.494146        -0.563896         0.487723
 O         3.518774        -0.617466         1.579113
 C         3.482210         0.566743         0.662288
 C         2.644817         1.569617         1.442951
 C         1.391755         1.157849         1.561689
 C         1.091874        -0.199690         0.940965
 C        -0.014755        -0.116710        -0.138527
 O         0.663268        -1.001692         2.059007
 H         1.711530        -2.354366        -0.581638
 H         3.018799        -1.386732        -1.394757
 H         3.468672        -2.357305        -0.062036
 H         4.386980         0.752134         0.102413
 H         3.009603         2.519236         1.794013
 H         0.633488         1.708467         2.086705
 H         0.053175         0.788377        -0.827974
 H         0.100991        -0.852889        -0.947298
 H        -1.026491        -0.221299         0.178618
 H         1.288001        -1.041857         2.788403
