19
Iteration:   143
 C         2.474722        -1.594947        -0.604474
 C         2.629507        -0.649514         0.532868
 O         3.381311        -0.803238         1.784842
 C         3.602284         0.404865         0.903911
 C         2.823524         1.570873         1.458900
 C         1.540824         1.260005         1.518098
 C         1.093118        -0.110000         0.916443
 C         0.118984        -0.176253        -0.228676
 O         0.373262        -0.907402         1.899712
 H         1.943457        -2.497507        -0.339998
 H         1.823363        -1.149166        -1.311889
 H         3.415961        -1.854107        -1.159063
 H         4.610111         0.485148         0.492580
 H         3.246050         2.593658         1.699766
 H         0.661837         1.783850         1.979639
 H        -0.290240        -1.164545        -0.412303
 H        -0.716447         0.469974         0.012358
 H         0.537455         0.276728        -1.084313
 H         0.864517        -0.901871         2.707639
