19
Iteration:  1079
 C         2.566175        -1.604045        -0.698316
 C         2.473116        -0.657915         0.525681
 O         3.308865        -0.931421         1.728005
 C         3.470460         0.383417         0.947583
 C         2.739782         1.538572         1.590497
 C         1.448767         1.326208         1.497137
 C         1.139874        -0.060844         0.934511
 C         0.232136        -0.104694        -0.273647
 O         0.519753        -0.860705         1.967742
 H         1.964493        -2.470422        -0.527943
 H         2.199062        -1.183116        -1.580039
 H         3.614162        -1.983037        -0.952937
 H         4.466896         0.477344         0.488877
 H         3.334349         2.476446         1.728611
 H         0.648291         1.919313         1.899705
 H         0.662984         0.385796        -1.137068
 H         0.042105        -1.138221        -0.523994
 H        -0.653860         0.345689         0.009096
 H         1.176236        -0.872506         2.688168
