19
Iteration:   323
 C         2.818652        -1.919532        -0.294603
 C         2.514895        -0.611726         0.426238
 O         3.345222        -0.829471         1.613468
 C         3.568494         0.337314         0.805236
 C         2.871451         1.451145         1.446034
 C         1.491213         1.365610         1.581785
 C         1.056307        -0.012068         0.864933
 C        -0.081685         0.244860        -0.088255
 O         0.359538        -0.945348         1.778759
 H         2.622635        -2.752124         0.444202
 H         2.153547        -2.099783        -1.184328
 H         3.894875        -1.916676        -0.554644
 H         4.546276         0.359611         0.430261
 H         3.400798         2.350458         1.767972
 H         0.824624         2.095397         2.070155
 H        -0.360308        -0.782062        -0.445496
 H        -0.841971         0.695277         0.578401
 H         0.187269         0.742556        -1.062656
 H         0.979002        -1.426032         2.269707
