19
Iteration:  4093charge 0 multiplicity 1
 C         2.668508        -1.762202        -0.495605
 C         2.509413        -0.563436         0.460508
 O         3.417471        -0.604450         1.579070
 C         3.449734         0.509912         0.741084
 C         2.722983         1.676295         1.325155
 C         1.393413         1.270954         1.547291
 C         1.040909        -0.136566         1.047977
 C         0.034813        -0.169950        -0.087507
 O         0.636869        -1.166084         2.009462
 H         1.517052        -1.949731        -0.594854
 H         3.095727        -1.550444        -1.482831
 H         3.137381        -2.526339         0.117325
 H         4.398244         0.632941         0.159858
 H         3.334237         2.563545         1.635567
 H         0.712257         1.895746         2.163572
 H         0.198771         0.751323        -0.679466
 H         0.061630        -0.996161        -0.857412
 H        -0.976112        -0.107853         0.434563
 H         1.377979        -1.149792         2.713834
