19
Iteration:  2943charge 0 multiplicity 1
 C         2.715330        -1.613952        -0.579016
 C         2.456425        -0.610004         0.498862
 O         3.374146        -0.746359         1.618854
 C         3.491196         0.411428         0.799497
 C         2.725709         1.618354         1.417412
 C         1.383251         1.278096         1.541072
 C         1.101878        -0.114480         1.042771
 C         0.129256        -0.100770        -0.159746
 O         0.507014        -1.054429         2.023859
 H         2.636405        -1.194460        -1.639263
 H         3.627085        -2.111701        -0.475795
 H         2.021455        -2.417289        -0.529828
 H         4.392582         0.578416         0.232456
 H         3.184033         2.588887         1.436479
 H         0.512768         1.684119         2.088212
 H         0.244680         0.766582        -0.840628
 H         0.439843        -0.965420        -0.756828
 H        -0.856114        -0.181346         0.242679
 H         1.219494        -1.224649         2.731095
