19
Iteration:  1604charge 0 multiplicity 1
 C         2.755648        -1.658668        -0.589938
 C         2.503046        -0.578740         0.417661
 O         3.197890        -0.957915         1.681021
 C         3.553493         0.337842         1.022494
 C         2.808002         1.413898         1.715620
 C         1.499132         1.380599         1.438910
 C         1.170346         0.049602         0.767195
 C        -0.066759        -0.165095        -0.216116
 O         0.526672        -0.782735         1.896002
 H         2.162486        -2.576916        -0.341816
 H         2.585623        -1.348750        -1.673348
 H         3.779100        -1.882483        -0.544389
 H         4.503920         0.531605         0.507766
 H         3.297580         2.108831         2.465233
 H         0.826053         2.235267         1.805817
 H         0.110950         0.182826        -1.217360
 H        -0.401519        -1.222934        -0.111877
 H        -0.837641         0.453216         0.153618
 H         1.261531        -0.848789         2.547533
