19
Iteration:  2160
 C         2.887382        -1.476130        -0.764497
 C         2.487585        -0.701676         0.523627
 O         3.180881        -0.980980         1.804412
 C         3.512397         0.278950         1.023776
 C         2.741408         1.509636         1.467913
 C         1.423500         1.387407         1.348931
 C         1.139930        -0.081104         0.829725
 C        -0.042593        -0.132815        -0.126815
 O         0.573248        -0.809273         2.038274
 H         2.243597        -2.345564        -0.956702
 H         2.758387        -0.815862        -1.659325
 H         4.007049        -1.773761        -0.646535
 H         4.515526         0.298725         0.646050
 H         3.349399         2.304162         1.929259
 H         0.591009         2.006407         1.639220
 H        -0.008025         0.662016        -0.906685
 H        -0.160239        -1.088485        -0.668027
 H        -1.022861         0.114954         0.437039
 H         1.418333        -1.000900         2.576670
