19
Iteration:  4329
 C         2.512986        -1.680906        -0.529702
 C         2.473262        -0.653843         0.468782
 O         3.580969        -0.629525         1.505341
 C         3.434290         0.553956         0.725002
 C         2.590526         1.581698         1.460362
 C         1.348358         1.278815         1.475418
 C         1.164930        -0.171577         1.045587
 C         0.183083        -0.158697        -0.106815
 O         0.570840        -1.024723         2.163982
 H         1.688566        -1.881017        -1.247299
 H         3.360600        -1.627283        -1.315261
 H         2.641196        -2.740902        -0.028831
 H         4.262049         0.837369        -0.024173
 H         3.099750         2.512432         1.723740
 H         0.446237         1.782551         1.866011
 H         0.754047         0.243059        -1.004136
 H         0.102129        -1.224348        -0.447956
 H        -0.864851         0.168774        -0.019433
 H         1.158937        -1.452887         2.828282
