19
Iteration:  2587
 C         2.718764        -1.713695        -0.500093
 C         2.487960        -0.586922         0.567047
 O         3.320164        -0.682151         1.839784
 C         3.489637         0.371241         0.846617
 C         2.759500         1.610765         1.263451
 C         1.538231         1.161336         1.585923
 C         1.092581        -0.206381         1.003081
 C         0.125538         0.173557        -0.173326
 O         0.392347        -1.121946         1.794492
 H         2.021083        -1.507510        -1.410253
 H         3.696244        -1.711240        -1.011545
 H         2.488464        -2.674089        -0.076934
 H         4.453547         0.437981         0.367415
 H         3.361745         2.515494         1.472843
 H         0.897564         1.851334         2.073522
 H         0.624458         0.983398        -0.780641
 H        -0.037016        -0.565423        -0.991831
 H        -0.903814         0.340875         0.161487
 H         1.004544        -1.394842         2.438932
