19
Iteration:   575charge 0 multiplicity 1
 C         2.751729        -1.732473        -0.580160
 C         2.421782        -0.731477         0.507798
 O         3.339217        -0.853961         1.715356
 C         3.440284         0.344499         0.902383
 C         2.780448         1.511570         1.546511
 C         1.478266         1.279189         1.429026
 C         1.137923        -0.122039         0.883915
 C         0.024931         0.115119        -0.235746
 O         0.501547        -0.840689         1.963554
 H         2.052278        -2.555255        -0.684582
 H         2.889303        -1.278070        -1.551984
 H         3.721453        -2.150175        -0.174698
 H         4.399348         0.472714         0.331338
 H         3.240213         2.325249         2.039441
 H         0.735513         1.875089         2.017803
 H        -0.577159        -0.786834        -0.413448
 H        -0.553436         1.037380        -0.032469
 H         0.666479         0.184880        -1.124768
 H         1.104373        -0.852351         2.783889
