19
Iteration:  1117charge 0 multiplicity 1
 C         2.842789        -1.630523        -0.638760
 C         2.493186        -0.732693         0.582145
 O         3.521214        -0.831453         1.685528
 C         3.506068         0.322731         0.857315
 C         2.805719         1.399190         1.483902
 C         1.469131         1.255178         1.504399
 C         1.022007        -0.111702         1.012079
 C         0.055458         0.089859        -0.217028
 O         0.243496        -0.811634         1.951104
 H         2.359643        -2.654689        -0.525145
 H         2.527633        -1.139443        -1.647738
 H         3.901367        -1.767130        -0.621705
 H         4.262314         0.494308         0.064727
 H         3.282269         2.309561         1.688888
 H         0.761201         1.966644         1.976323
 H        -0.053285         1.135128        -0.674306
 H         0.218566        -0.804184        -0.953402
 H        -1.031396        -0.314560         0.147616
 H         0.762684        -0.909376         2.853378
