19
Iteration:  4682
 C         2.460867        -1.844791        -0.401541
 C         2.596415        -0.653317         0.548314
 O         3.555883        -0.531442         1.655099
 C         3.447584         0.532221         0.667765
 C         2.630136         1.579117         1.318890
 C         1.404444         1.212952         1.624810
 C         1.158584        -0.181979         0.992907
 C         0.095472         0.009896        -0.148441
 O         0.588679        -1.102895         1.907080
 H         3.292537        -2.538580        -0.694787
 H         1.575135        -2.521977        -0.250495
 H         2.188071        -1.359382        -1.397525
 H         4.374908         0.698055         0.045703
 H         2.964523         2.545271         1.760861
 H         0.681922         1.737622         2.234777
 H         0.744350         0.258197        -1.033545
 H        -0.512824        -0.929074        -0.366537
 H        -0.662307         0.729583         0.272889
 H         1.091808        -1.181849         2.696870
