19
Iteration:  4823
 C         2.577017        -1.494850        -0.696100
 C         2.518120        -0.599743         0.476859
 O         3.257190        -0.755970         1.730237
 C         3.594158         0.307897         0.882811
 C         2.683282         1.507306         1.448972
 C         1.342044         1.297759         1.371844
 C         1.119401        -0.076244         0.880807
 C         0.041109        -0.423333        -0.106422
 O         0.774797        -0.739405         2.134775
 H         3.364523        -2.261885        -0.616980
 H         1.641681        -2.058777        -0.787945
 H         2.626282        -0.928711        -1.599274
 H         4.602109         0.361648         0.426832
 H         3.095369         2.167951         2.152321
 H         0.567324         2.007261         1.649329
 H         0.392315        -0.194195        -1.158576
 H        -0.285883        -1.462409        -0.236558
 H        -1.007756        -0.064853        -0.057068
 H         1.556380        -0.721609         2.787460
