19
Iteration:  4443charge 0 multiplicity 1
 C         2.546755        -1.776392        -0.594210
 C         2.487465        -0.646056         0.439608
 O         3.380635        -0.641982         1.622241
 C         3.444900         0.557479         0.757866
 C         2.675780         1.690105         1.351972
 C         1.396392         1.230497         1.456787
 C         1.140020        -0.165192         0.987775
 C         0.028471        -0.148792        -0.033875
 O         0.777548        -1.069859         2.134961
 H         2.840992        -1.357866        -1.593822
 H         3.272708        -2.568150        -0.275939
 H         1.477977        -2.061486        -0.603613
 H         4.288827         0.663144         0.123459
 H         2.975356         2.690531         1.730117
 H         0.697768         1.800643         2.103854
 H         0.161443         0.617063        -0.865684
 H         0.005433        -1.090846        -0.744913
 H        -1.000558        -0.062694         0.517310
 H         1.680397        -1.005473         2.603265
