19
Iteration:   543charge 0 multiplicity 1
 C         2.663869        -1.649767        -0.600289
 C         2.605238        -0.620894         0.487891
 O         3.342447        -0.985415         1.614624
 C         3.586949         0.361190         0.947023
 C         2.798378         1.439095         1.681947
 C         1.466645         1.373037         1.449949
 C         1.120370         0.023760         0.863429
 C        -0.002591        -0.238810        -0.248295
 O         0.375789        -0.637782         1.961749
 H         1.875411        -2.406140        -0.418593
 H         2.625934        -1.312426        -1.651646
 H         3.661830        -2.199292        -0.495924
 H         4.606148         0.421362         0.496938
 H         3.306063         2.112584         2.312394
 H         0.881616         2.104799         2.010543
 H         0.164260        -1.295010        -0.562668
 H        -1.089358        -0.137634         0.055572
 H         0.157119         0.499693        -1.071011
 H         1.009414        -0.926223         2.618099
