19
Iteration:  3585
 C         2.693965        -1.729910        -0.601273
 C         2.504987        -0.613096         0.421998
 O         3.430581        -0.765221         1.604540
 C         3.396144         0.493795         0.752735
 C         2.689895         1.634503         1.515243
 C         1.388615         1.298621         1.509664
 C         1.075569        -0.107382         0.981177
 C         0.025683        -0.091324        -0.067620
 O         0.642147        -1.023738         2.029843
 H         3.107342        -1.431363        -1.582274
 H         3.475506        -2.484235        -0.240269
 H         1.799230        -2.322106        -0.776233
 H         4.336712         0.581754         0.259740
 H         3.234101         2.498746         1.865241
 H         0.591750         1.886304         1.969913
 H         0.238519         0.614949        -0.834709
 H        -0.140155        -1.062814        -0.561804
 H        -0.971201         0.101440         0.446717
 H         1.428720        -1.244323         2.657512
