19
Iteration:  3351
 C         2.880121        -1.610090        -0.729250
 C         2.503922        -0.700214         0.450682
 O         3.464291        -0.759466         1.641133
 C         3.404879         0.422326         0.718271
 C         2.656482         1.625511         1.367996
 C         1.377630         1.255585         1.492951
 C         1.150630        -0.236876         0.987521
 C        -0.038958        -0.074517         0.004477
 O         0.483902        -0.938963         2.165551
 H         3.963295        -1.429149        -1.006879
 H         2.799190        -2.722371        -0.457593
 H         2.139686        -1.410174        -1.642081
 H         4.276010         0.598006         0.123577
 H         3.234243         2.476722         1.854336
 H         0.541455         1.841560         1.915754
 H         0.284941         0.550335        -0.875183
 H        -0.344485        -1.110023        -0.286169
 H        -0.914701         0.315771         0.548454
 H         1.192896        -0.984646         2.907515
