19
Iteration:  1294
 C         2.703747        -1.543273        -0.660169
 C         2.559986        -0.680836         0.523646
 O         3.337971        -0.959545         1.713038
 C         3.543045         0.342969         1.009254
 C         2.773040         1.521235         1.455039
 C         1.409206         1.346865         1.405271
 C         1.068115        -0.109574         0.964863
 C         0.106075        -0.025876        -0.158252
 O         0.429969        -0.878731         1.946271
 H         2.076120        -2.439874        -0.490522
 H         2.358478        -1.028368        -1.548192
 H         3.817261        -1.837525        -0.760186
 H         4.513190         0.352199         0.593414
 H         3.299183         2.462165         1.588449
 H         0.659063         1.967179         1.871520
 H         0.408486         0.675509        -0.954801
 H         0.095540        -0.975787        -0.702210
 H        -0.932715         0.307253         0.280284
 H         1.016223        -1.160034         2.600013
