19
Iteration:  3403
 C         2.555684        -1.752625        -0.534549
 C         2.483122        -0.591468         0.481475
 O         3.374296        -0.615085         1.673807
 C         3.479415         0.532362         0.799896
 C         2.705927         1.595281         1.444680
 C         1.409918         1.267379         1.476508
 C         1.110074        -0.158850         0.939743
 C        -0.024507        -0.088437        -0.081106
 O         0.764856        -1.117787         1.914470
 H         2.749259        -1.374572        -1.464794
 H         3.314111        -2.537059        -0.346916
 H         1.534465        -2.145400        -0.508330
 H         4.442772         0.798719         0.364667
 H         3.266819         2.413344         1.986835
 H         0.858804         1.694657         2.310236
 H         0.398222         0.395620        -0.924046
 H        -0.480398        -1.053877        -0.310977
 H        -0.856690         0.554184         0.283200
 H         1.476837        -1.525627         2.370379
