19
Iteration:  1187
 C         2.392755        -1.787390        -0.482087
 C         2.525873        -0.652084         0.544207
 O         3.268403        -0.756136         1.759128
 C         3.459915         0.431209         0.900981
 C         2.734492         1.605657         1.503022
 C         1.478553         1.306700         1.535253
 C         1.190062        -0.038592         0.916916
 C         0.178058         0.130595        -0.286729
 O         0.701566        -1.178207         1.763394
 H         1.740698        -2.520504        -0.075145
 H         1.995756        -1.430868        -1.375527
 H         3.397691        -2.296071        -0.720481
 H         4.419327         0.530805         0.439562
 H         3.264422         2.513273         1.918314
 H         0.822218         1.780970         2.248912
 H         0.675238         0.808958        -0.963628
 H        -0.253162        -0.748543        -0.679938
 H        -0.666809         0.708260         0.140063
 H         1.133558        -1.221555         2.621669
