19
Iteration:  1805
 C         2.723951        -1.614629        -0.586584
 C         2.479554        -0.674755         0.579253
 O         3.313411        -0.907807         1.769544
 C         3.557526         0.293733         0.963575
 C         2.817280         1.602601         1.428717
 C         1.484854         1.338654         1.472695
 C         1.068101        -0.080915         0.969564
 C         0.044953         0.039538        -0.219583
 O         0.409880        -0.950050         1.867178
 H         2.373702        -2.619455        -0.324585
 H         2.245346        -1.266746        -1.528077
 H         3.827365        -1.794320        -0.680644
 H         4.483467         0.210612         0.393886
 H         3.308776         2.581052         1.617132
 H         0.805988         2.108061         1.902005
 H         0.351181         0.845247        -0.924109
 H         0.148299        -0.876018        -0.829102
 H        -0.973812         0.151291         0.163617
 H         1.294294        -1.334371         2.236031
