19
Iteration:  2777
 C         2.732028        -1.702728        -0.514793
 C         2.461289        -0.592148         0.423516
 O         3.322628        -0.852331         1.567628
 C         3.441700         0.400504         0.906431
 C         2.731135         1.470758         1.555640
 C         1.397414         1.330124         1.564754
 C         1.093408        -0.050719         0.890773
 C         0.046021        -0.169246        -0.212162
 O         0.625180        -0.802413         1.949863
 H         2.994585        -2.527422         0.010667
 H         1.872077        -1.838842        -1.200472
 H         3.569344        -1.186835        -1.047701
 H         4.494831         0.588224         0.469139
 H         3.118184         2.167950         2.320622
 H         0.594357         1.855484         2.017705
 H         0.099995         0.675985        -0.862792
 H         0.496487        -0.956239        -0.812783
 H        -0.906713        -0.523622         0.282359
 H         1.223362        -0.879485         2.664321
