19
Iteration:  3505
 C         2.858310        -1.708451        -0.601139
 C         2.623975        -0.596206         0.455391
 O         3.512611        -0.749756         1.627376
 C         3.495140         0.509494         0.704262
 C         2.673137         1.563967         1.348446
 C         1.401287         1.178932         1.619525
 C         0.999542        -0.169450         1.022933
 C        -0.043440         0.011125        -0.072877
 O         0.368109        -1.027604         2.033257
 H         1.897139        -2.055055        -1.145882
 H         3.709972        -1.390050        -1.174741
 H         3.273483        -2.539780         0.018562
 H         4.378868         0.755456         0.073499
 H         3.191610         2.491791         1.517483
 H         0.798658         1.907421         2.156144
 H         0.426279         0.391066        -1.050522
 H        -0.587166        -0.926502        -0.253190
 H        -0.695140         0.798691         0.260556
 H         0.977058        -1.337283         2.806877
