19
Iteration:  3461charge 0 multiplicity 1
 C         2.798993        -1.699147        -0.551662
 C         2.468595        -0.644581         0.534378
 O         3.481626        -0.700472         1.565651
 C         3.409450         0.497458         0.611000
 C         2.679819         1.532508         1.412980
 C         1.393512         1.240111         1.604678
 C         1.067235        -0.134310         1.077530
 C         0.150092        -0.028786        -0.118765
 O         0.422431        -1.027382         2.059496
 H         1.891051        -1.940880        -1.262474
 H         3.689721        -1.407317        -1.091546
 H         3.087241        -2.769432        -0.248112
 H         4.266397         0.685391        -0.042585
 H         3.078109         2.377080         1.900864
 H         0.626274         1.879554         2.048579
 H         0.486383         0.657769        -0.977244
 H        -0.034164        -0.958892        -0.688898
 H        -0.782404         0.343563         0.272712
 H         1.171412        -1.245216         2.745428
