19
Iteration:  1376charge 0 multiplicity 1
 C         2.837962        -1.762965        -0.582479
 C         2.540403        -0.683267         0.556047
 O         3.399101        -0.839722         1.647902
 C         3.465644         0.390015         0.864651
 C         2.730619         1.498079         1.489126
 C         1.456273         1.277550         1.512946
 C         1.073923        -0.075253         0.954163
 C         0.096599         0.142371        -0.226693
 O         0.317399        -0.911895         1.966665
 H         2.214120        -2.668985        -0.588848
 H         2.606569        -1.337013        -1.597863
 H         3.833791        -2.060255        -0.606486
 H         4.488438         0.526698         0.391343
 H         3.325132         2.284748         1.935560
 H         0.759444         1.707592         2.190172
 H         0.560370         0.651051        -1.078237
 H        -0.447098        -0.842108        -0.395217
 H        -0.630453         0.810260         0.141774
 H         0.961742        -1.350547         2.460820
