19
Iteration:  2002charge 0 multiplicity 1
 C         2.441591        -1.826152        -0.406217
 C         2.587567        -0.674149         0.605216
 O         3.456828        -0.719007         1.691292
 C         3.408581         0.521558         0.811423
 C         2.736285         1.615072         1.469796
 C         1.454368         1.157699         1.646847
 C         1.183800        -0.153153         0.967535
 C         0.228647         0.190686        -0.280839
 O         0.451014        -1.102761         1.702621
 H         1.776594        -2.497637         0.231854
 H         1.926805        -1.419153        -1.332817
 H         3.270739        -2.411721        -0.756316
 H         4.353237         0.595768         0.293598
 H         3.317997         2.489382         1.853692
 H         0.727199         1.695931         2.225614
 H         0.800759         1.068288        -0.698110
 H         0.179187        -0.691602        -0.996970
 H        -0.748539         0.535888         0.039907
 H         0.944393        -1.066771         2.563700
