19
Iteration:  2207
 C         2.828344        -1.616420        -0.673995
 C         2.575231        -0.686309         0.471126
 O         3.359152        -0.909891         1.697382
 C         3.512993         0.433832         0.931957
 C         2.736768         1.531998         1.517906
 C         1.425416         1.231653         1.479356
 C         1.056939        -0.106427         0.936587
 C        -0.020407        -0.048300        -0.263851
 O         0.455290        -0.866769         2.012712
 H         1.896722        -2.212589        -0.901096
 H         3.215723        -1.066824        -1.556185
 H         3.609590        -2.254599        -0.270976
 H         4.548973         0.580031         0.557953
 H         3.187320         2.383516         2.034832
 H         0.796566         1.822221         2.170963
 H         0.256262         0.186408        -1.305203
 H        -0.621614        -0.988964        -0.145811
 H        -0.720902         0.802933        -0.004035
 H         0.975198        -0.579037         2.766181
