19
Iteration:  2256charge 0 multiplicity 1
 C         2.488786        -1.690411        -0.437159
 C         2.515124        -0.612994         0.588443
 O         3.418308        -0.874967         1.688899
 C         3.500704         0.467461         0.925703
 C         2.748715         1.660258         1.430412
 C         1.409926         1.293832         1.568483
 C         1.077437        -0.053169         0.967015
 C         0.193052         0.042741        -0.331090
 O         0.512709        -1.140027         1.845541
 H         1.802937        -2.422271        -0.036126
 H         2.239477        -1.325578        -1.414252
 H         3.511699        -2.204536        -0.482234
 H         4.337278         0.415300         0.276787
 H         3.350711         2.536362         1.756730
 H         0.687760         1.930448         2.029811
 H         0.863382         0.813571        -0.761267
 H         0.052133        -0.860528        -0.896267
 H        -0.673875         0.718479        -0.393644
 H         1.285132        -1.526431         2.328900
