19
Iteration:   170
 C         2.665332        -1.646209        -0.546975
 C         2.472335        -0.604542         0.474489
 O         3.181118        -0.955542         1.703246
 C         3.475316         0.275530         0.944710
 C         2.780616         1.568911         1.482385
 C         1.415600         1.461552         1.397498
 C         1.069349         0.020328         0.898779
 C         0.095654        -0.057050        -0.175071
 O         0.720437        -0.971074         1.993972
 H         1.974111        -2.516592        -0.335611
 H         2.528290        -1.245035        -1.631244
 H         3.670088        -2.042255        -0.503030
 H         4.433606         0.283425         0.399801
 H         3.220779         2.394538         1.971202
 H         0.580763         2.033262         1.725495
 H        -0.289006        -1.083118        -0.354012
 H        -0.825678         0.552817         0.013181
 H         0.561579         0.466568        -1.076976
 H         1.587665        -1.108768         2.427910
