19
Iteration:  3699
 C         2.547261        -1.808318        -0.602287
 C         2.563097        -0.549218         0.367855
 O         3.403622        -0.673256         1.610676
 C         3.423355         0.550338         0.876692
 C         2.664378         1.585930         1.493199
 C         1.349932         1.230108         1.465933
 C         1.160448        -0.093332         0.912747
 C        -0.001550        -0.149137        -0.025483
 O         0.777911        -1.043069         2.029608
 H         2.706881        -2.620507         0.117265
 H         1.552665        -1.890316        -0.974789
 H         3.282581        -1.655277        -1.440306
 H         4.369961         0.803568         0.287151
 H         3.128915         2.455705         2.000839
 H         0.439828         1.700639         1.797120
 H         0.305587         0.376719        -1.010494
 H        -0.361704        -1.135651        -0.320607
 H        -0.822067         0.386172         0.413388
 H         1.580308        -1.019595         2.517834
