19
Iteration:  1801charge 0 multiplicity 1
 C         2.726660        -1.622614        -0.586126
 C         2.461437        -0.646747         0.544367
 O         3.311889        -0.886831         1.799624
 C         3.546010         0.299223         0.976070
 C         2.819411         1.606266         1.394036
 C         1.521252         1.322322         1.498995
 C         1.079379        -0.076193         0.979016
 C         0.068566         0.070609        -0.235062
 O         0.393932        -0.993247         1.873680
 H         2.307579        -2.593551        -0.350486
 H         2.111628        -1.327971        -1.398573
 H         3.799843        -1.850665        -0.804185
 H         4.495320         0.282887         0.384174
 H         3.274351         2.585082         1.568043
 H         0.834201         2.080139         1.823597
 H         0.375663         0.795119        -0.958703
 H         0.157698        -0.887320        -0.705633
 H        -0.965507         0.121064         0.158519
 H         1.197084        -1.426331         2.161788
