19
Iteration:  3827charge 0 multiplicity 1
 C         2.607080        -1.812309        -0.503190
 C         2.499994        -0.536411         0.463990
 O         3.451825        -0.707298         1.565953
 C         3.429308         0.552263         0.768486
 C         2.667901         1.581500         1.481585
 C         1.327419         1.333451         1.591998
 C         1.138854        -0.065691         0.982214
 C         0.001151        -0.213185        -0.088638
 O         0.735440        -1.031481         1.915101
 H         2.011874        -2.602172        -0.064687
 H         2.355341        -1.548664        -1.617905
 H         3.657720        -2.230521        -0.459405
 H         4.341894         0.716910         0.109080
 H         3.221910         2.451385         1.787485
 H         0.551285         1.796128         2.185038
 H         0.239590         0.106170        -1.146825
 H        -0.490981        -1.158703        -0.139100
 H        -0.770020         0.472386         0.179137
 H         1.392985        -1.117863         2.606069
