19
Iteration:  2814charge 0 multiplicity 1
 C         2.697953        -1.653608        -0.522339
 C         2.581494        -0.674011         0.537295
 O         3.410575        -0.740942         1.670044
 C         3.513881         0.484353         0.814597
 C         2.721118         1.607327         1.434535
 C         1.433887         1.196436         1.471835
 C         1.127333        -0.185435         0.954460
 C         0.010775        -0.011963        -0.151356
 O         0.448141        -1.017712         1.964051
 H         2.036334        -2.613215        -0.482443
 H         2.453964        -1.160950        -1.448095
 H         3.683876        -2.034528        -0.685236
 H         4.496735         0.748292         0.515853
 H         3.218266         2.396226         1.985911
 H         0.617457         1.832307         1.891890
 H         0.462517         0.782270        -0.808041
 H        -0.336221        -0.893539        -0.747457
 H        -0.928419         0.437634         0.130934
 H         1.080244        -1.382143         2.532108
