19
Iteration:  2911charge 0 multiplicity 1
 C         2.728863        -1.813982        -0.463049
 C         2.587644        -0.644922         0.493238
 O         3.584709        -0.727368         1.535998
 C         3.430141         0.568283         0.772181
 C         2.671100         1.565131         1.614517
 C         1.372472         1.267136         1.580831
 C         1.104165        -0.101983         0.905306
 C        -0.035881        -0.065282        -0.214123
 O         0.488372        -0.974049         1.930592
 H         2.053308        -1.594447        -1.370543
 H         3.682354        -2.120285        -0.798588
 H         2.269017        -2.579333         0.097781
 H         4.319004         0.740553         0.197162
 H         3.299102         2.260209         2.128132
 H         0.573076         1.352494         2.345487
 H         0.155069         0.651824        -1.068101
 H        -0.376794        -1.040537        -0.644783
 H        -0.986575         0.268188         0.195489
 H         1.110596        -0.869312         2.676348
