19
Iteration:    83charge 0 multiplicity 1
 C         2.782737        -1.927341        -0.388073
 C         2.419458        -0.705506         0.481166
 O         3.409305        -0.775793         1.565136
 C         3.375351         0.457364         0.669055
 C         2.678155         1.582040         1.379437
 C         1.433193         1.205906         1.662696
 C         1.032985        -0.054892         1.029548
 C         0.305298         0.268257        -0.262820
 O         0.351469        -1.014882         1.987989
 H         2.433951        -2.833175         0.147962
 H         2.635573        -1.776727        -1.513528
 H         3.852993        -2.066920        -0.335683
 H         4.371805         0.707114         0.184704
 H         3.432313         2.188090         1.846867
 H         0.888649         1.720068         2.448804
 H         0.017156        -0.621348        -0.865686
 H        -0.645049         0.797097         0.013696
 H         1.044649         0.933927        -0.802974
 H         1.013561        -1.174993         2.665432
