19
Iteration:  2351
 C         2.640246        -1.729196        -0.532486
 C         2.511462        -0.768005         0.579631
 O         3.395343        -0.814743         1.674004
 C         3.461605         0.444815         0.926175
 C         2.731504         1.607667         1.512559
 C         1.465072         1.283916         1.524121
 C         1.104461        -0.127083         0.938735
 C         0.235883         0.120865        -0.279898
 O         0.362692        -1.011118         1.874463
 H         2.650982        -2.789473        -0.213440
 H         1.911106        -1.640510        -1.332607
 H         3.609282        -1.642748        -1.015342
 H         4.361952         0.676213         0.350798
 H         3.251280         2.556441         1.753456
 H         0.643919         1.705679         2.051119
 H         0.909220         0.642621        -0.996577
 H        -0.067304        -0.868409        -0.474380
 H        -0.580272         0.794564        -0.049390
 H         0.932567        -1.087931         2.624172
