19
Iteration:   635charge 0 multiplicity 1
 C         2.508311        -1.763659        -0.366762
 C         2.524942        -0.657838         0.636311
 O         3.356483        -0.759333         1.819492
 C         3.495847         0.396887         0.734265
 C         2.830150         1.512190         1.388742
 C         1.497851         1.339654         1.556900
 C         1.134384        -0.082942         0.955995
 C         0.208027         0.182714        -0.210686
 O         0.427845        -1.144589         1.694674
 H         1.927543        -2.645045         0.011350
 H         1.977267        -1.344852        -1.283504
 H         3.510390        -2.020420        -0.734788
 H         4.460951         0.605490         0.318895
 H         3.179445         2.456685         1.707682
 H         0.856175         2.065053         1.970955
 H        -0.313090        -0.782673        -0.433399
 H        -0.584283         0.933208        -0.074586
 H         0.717626         0.526996        -1.130030
 H         0.886152        -1.329342         2.580762
