19
Iteration:  4254charge 0 multiplicity 1
 C         2.826845        -1.621573        -0.611818
 C         2.536334        -0.617265         0.429732
 O         3.310118        -0.823079         1.664105
 C         3.452148         0.544666         0.817999
 C         2.657149         1.660747         1.256637
 C         1.383085         1.258201         1.413270
 C         1.049327        -0.155725         0.971846
 C        -0.114119        -0.117380         0.030320
 O         0.740129        -1.068165         2.154062
 H         2.378173        -1.532129        -1.576373
 H         3.850923        -1.495599        -0.926381
 H         2.634014        -2.672797        -0.362685
 H         4.511444         0.706131         0.484253
 H         3.054372         2.638590         1.294687
 H         0.579269         1.942567         1.636285
 H        -0.134038         0.524015        -0.826632
 H        -0.404397        -1.110936        -0.273953
 H        -0.854604         0.286921         0.703979
 H         1.652599        -1.316823         2.563510
