19
Iteration:  3344
 C         2.813957        -1.591207        -0.715966
 C         2.556258        -0.699764         0.463145
 O         3.506759        -0.720278         1.644589
 C         3.386850         0.448476         0.764421
 C         2.713530         1.571279         1.384604
 C         1.431065         1.195356         1.482916
 C         1.108361        -0.220866         1.013503
 C        -0.093252        -0.108787        -0.067563
 O         0.464219        -0.918437         2.207173
 H         3.886247        -1.534520        -1.067276
 H         2.504247        -2.590450        -0.672898
 H         2.346503        -1.131598        -1.538523
 H         4.267058         0.649963         0.131600
 H         3.084337         2.523788         1.609954
 H         0.468652         1.669971         1.714100
 H         0.259917         0.528818        -0.926185
 H        -0.193435        -1.134538        -0.433105
 H        -0.951591         0.281754         0.450812
 H         1.352684        -1.045475         2.711478
