19
Iteration:  2486
 C         2.675683        -1.541624        -0.638751
 C         2.531153        -0.594214         0.536058
 O         3.253192        -0.959282         1.679288
 C         3.526785         0.338475         1.065284
 C         2.757255         1.572436         1.454985
 C         1.447008         1.307180         1.444558
 C         1.112092        -0.048611         0.989641
 C         0.118383        -0.132661        -0.264055
 O         0.497853        -0.928467         1.959007
 H         1.762313        -1.739468        -1.134955
 H         3.457384        -1.068213        -1.260526
 H         3.105268        -2.466419        -0.213556
 H         4.524906         0.668091         0.733469
 H         3.311313         2.444189         1.751281
 H         0.654129         2.095233         1.463376
 H         0.427257         0.490105        -1.072510
 H        -0.044189        -1.171895        -0.596555
 H        -0.862877         0.336978        -0.091792
 H         1.182204        -1.070077         2.660292
