19
Iteration:  3903
 C         2.679913        -1.509726        -0.600667
 C         2.562316        -0.618766         0.558385
 O         3.455917        -0.845416         1.643613
 C         3.478683         0.482008         0.802635
 C         2.699323         1.628409         1.291147
 C         1.374777         1.290055         1.453380
 C         1.105943        -0.200751         0.961749
 C         0.061244        -0.211167        -0.100922
 O         0.502138        -0.984562         2.148177
 H         3.055940        -2.419532        -0.259475
 H         1.648398        -1.808530        -0.931138
 H         3.461240        -1.201962        -1.337386
 H         4.534886         0.546515         0.352309
 H         2.964510         2.663262         1.289692
 H         0.598810         1.980409         1.874087
 H         0.102043         0.647480        -0.816536
 H        -0.097391        -1.079516        -0.691130
 H        -0.922541        -0.124314         0.227505
 H         1.342504        -1.114728         2.739645
