19
Iteration:  1293charge 0 multiplicity 1
 C         2.719141        -1.543870        -0.660289
 C         2.553984        -0.677295         0.525406
 O         3.340616        -0.965446         1.710348
 C         3.544502         0.347127         1.004974
 C         2.766510         1.519794         1.447472
 C         1.413016         1.350169         1.409376
 C         1.064620        -0.114760         0.971611
 C         0.100457        -0.024827        -0.159367
 O         0.425768        -0.877280         1.948611
 H         2.073390        -2.435044        -0.487342
 H         2.360171        -1.030467        -1.567203
 H         3.818818        -1.825296        -0.749029
 H         4.516849         0.340126         0.581006
 H         3.319866         2.454980         1.610858
 H         0.666144         1.945453         1.871081
 H         0.418320         0.672515        -0.949444
 H         0.082839        -0.973112        -0.718389
 H        -0.904367         0.329772         0.262366
 H         0.995254        -1.143109         2.635004
