19
Iteration:  1155charge 0 multiplicity 1
 C         2.711954        -1.759828        -0.476918
 C         2.526278        -0.607934         0.455497
 O         3.307933        -0.808378         1.676127
 C         3.500406         0.362134         0.863851
 C         2.770708         1.520909         1.398768
 C         1.455107         1.198071         1.577338
 C         1.115703        -0.067582         0.979073
 C         0.078313         0.194140        -0.194402
 O         0.442514        -0.999752         1.884637
 H         2.088579        -2.554155        -0.142289
 H         2.539447        -1.632059        -1.494883
 H         3.788640        -2.109495        -0.375084
 H         4.440605         0.501461         0.354986
 H         3.182297         2.532838         1.711826
 H         0.816193         1.807052         2.202795
 H         0.143561         1.157657        -0.622151
 H         0.281456        -0.382407        -1.005899
 H        -0.842261         0.102326         0.236763
 H         1.206541        -1.440816         2.418595
