19
Iteration:  4567
 C         2.608333        -1.679345        -0.569424
 C         2.425691        -0.646086         0.473819
 O         3.362400        -0.761700         1.600382
 C         3.438260         0.446287         0.798473
 C         2.721947         1.653354         1.413412
 C         1.373321         1.333082         1.447894
 C         1.092937        -0.085767         1.028203
 C         0.009989        -0.235742        -0.080907
 O         0.783780        -0.989454         2.065827
 H         2.109368        -2.574426        -0.188627
 H         2.286958        -1.278973        -1.524234
 H         3.700481        -1.725876        -0.569913
 H         4.429047         0.455547         0.247340
 H         3.186808         2.621649         1.684511
 H         0.737773         2.173626         1.731142
 H         0.201968         0.591442        -0.939095
 H        -0.108152        -1.264440        -0.575531
 H        -1.030965        -0.163461         0.429380
 H         1.665102        -1.112089         2.409066
