19
Iteration:  4095
 C         2.665940        -1.775270        -0.501267
 C         2.508472        -0.557435         0.466782
 O         3.411352        -0.620982         1.590313
 C         3.446074         0.509342         0.731443
 C         2.711624         1.703747         1.319735
 C         1.398778         1.277281         1.549606
 C         1.040413        -0.115019         1.050088
 C         0.048642        -0.169096        -0.074389
 O         0.641739        -1.177952         2.007403
 H         1.568154        -1.917440        -0.629390
 H         3.140946        -1.520200        -1.497199
 H         3.152835        -2.541499         0.094752
 H         4.420493         0.581991         0.134717
 H         3.344221         2.539745         1.610985
 H         0.673969         1.886379         2.135766
 H         0.159923         0.692435        -0.724825
 H         0.017040        -0.967265        -0.844699
 H        -0.926853        -0.102205         0.453488
 H         1.324237        -1.216357         2.693898
