19
Iteration:   815
 C         2.669600        -1.659676        -0.666803
 C         2.538012        -0.708241         0.487502
 O         3.382409        -0.888549         1.629759
 C         3.531063         0.374354         0.963168
 C         2.827549         1.471794         1.583418
 C         1.489273         1.249778         1.508723
 C         1.116259        -0.062182         0.911217
 C         0.132128        -0.159657        -0.257138
 O         0.294192        -0.638298         2.032358
 H         1.842977        -2.331406        -0.784321
 H         2.778665        -1.203101        -1.670587
 H         3.486400        -2.261780        -0.452358
 H         4.477187         0.469784         0.462641
 H         3.154314         2.387266         2.030485
 H         0.792370         1.932585         1.908758
 H        -0.619111        -0.829382         0.017895
 H        -0.261973         0.815030        -0.411688
 H         0.552562        -0.474337        -1.171281
 H         0.881069        -1.010286         2.617625
