19
Iteration:  4969
 C         2.603517        -1.886653        -0.331025
 C         2.549707        -0.651457         0.508836
 O         3.689650        -0.620039         1.516773
 C         3.399711         0.511699         0.640564
 C         2.626219         1.510141         1.452506
 C         1.323320         1.187001         1.595568
 C         1.082869        -0.093239         0.969305
 C         0.158436        -0.022033        -0.196918
 O         0.450159        -0.898000         1.991602
 H         3.396311        -1.869365        -1.015707
 H         2.482318        -2.725845         0.269698
 H         1.626091        -1.953841        -0.802814
 H         4.233968         0.834613        -0.031118
 H         3.187543         2.053668         2.237114
 H         0.695839         1.677535         2.295821
 H         0.716390         0.437386        -1.056046
 H        -0.333804        -0.959156        -0.505774
 H        -0.747236         0.708802        -0.154732
 H         1.148633        -1.436547         2.455267
