19
Iteration:  2021charge 0 multiplicity 1
 C         2.505234        -1.782170        -0.421693
 C         2.474862        -0.639706         0.578839
 O         3.522621        -0.681855         1.715977
 C         3.563356         0.386641         0.792215
 C         2.681756         1.559840         1.354608
 C         1.394903         1.207845         1.699965
 C         1.078397        -0.104562         1.000168
 C         0.297498         0.282394        -0.257470
 O         0.376756        -1.202207         1.779953
 H         1.778609        -2.587762        -0.178445
 H         2.302890        -1.534992        -1.470633
 H         3.561853        -2.204564        -0.459730
 H         4.527003         0.534509         0.335186
 H         2.890855         2.610505         1.436899
 H         0.688500         1.941630         2.097968
 H         0.834915         0.879173        -0.999954
 H        -0.101115        -0.670584        -0.632088
 H        -0.384450         1.044788         0.138858
 H         1.117874        -1.663554         2.336689
