19
Iteration:  1643charge 0 multiplicity 1
 C         2.710147        -1.663462        -0.626454
 C         2.501281        -0.660325         0.517660
 O         3.234072        -0.907084         1.796363
 C         3.451512         0.317527         0.996477
 C         2.752859         1.536854         1.382773
 C         1.454260         1.280553         1.491404
 C         1.123001        -0.053715         0.950015
 C         0.099388         0.168527        -0.247688
 O         0.587918        -0.995711         1.900211
 H         2.156908        -2.603957        -0.427092
 H         2.533723        -1.267514        -1.658136
 H         3.732673        -2.091809        -0.602117
 H         4.538306         0.366387         0.796905
 H         3.052913         2.531739         1.718566
 H         0.663688         1.933626         1.695355
 H         0.498753         0.669687        -1.168650
 H        -0.314907        -0.778750        -0.681560
 H        -0.724134         0.626899         0.352350
 H         1.158216        -0.926613         2.759850
