19
Iteration:  2862
 C         2.640610        -1.688990        -0.516703
 C         2.447970        -0.645914         0.600472
 O         3.312681        -0.763936         1.634269
 C         3.513778         0.553487         0.752352
 C         2.681773         1.714358         1.327038
 C         1.420553         1.276002         1.617349
 C         1.093521        -0.155705         1.055612
 C         0.249695         0.051247        -0.177319
 O         0.542980        -1.281341         1.918814
 H         1.735687        -2.047625        -0.929881
 H         3.269233        -1.254455        -1.385646
 H         3.141623        -2.646797        -0.106304
 H         4.442103         0.674619         0.106544
 H         2.948083         2.743127         1.653123
 H         0.825941         1.955595         2.186745
 H         0.733474         0.099660        -1.123960
 H        -0.525092        -0.694241        -0.148420
 H        -0.441356         0.921234        -0.229264
 H         1.162824        -1.157086         2.721172
