19
Iteration:  2254charge 0 multiplicity 1
 C         2.501262        -1.681483        -0.444695
 C         2.509635        -0.608358         0.587435
 O         3.413004        -0.877280         1.697711
 C         3.483755         0.482566         0.916632
 C         2.765446         1.662594         1.441091
 C         1.414581         1.298215         1.556574
 C         1.063725        -0.059918         0.961252
 C         0.191789         0.031500        -0.332312
 O         0.518393        -1.139941         1.857576
 H         1.713750        -2.403773        -0.116851
 H         2.248467        -1.313935        -1.439057
 H         3.423202        -2.237587        -0.523185
 H         4.388156         0.401577         0.292278
 H         3.348552         2.522779         1.773849
 H         0.706486         1.930893         2.088076
 H         0.982973         0.726847        -0.781213
 H         0.080437        -0.909234        -0.837904
 H        -0.628724         0.709095        -0.371319
 H         1.229638        -1.523818         2.300643
