19
Iteration:  3206
 C         2.683345        -1.546003        -0.577760
 C         2.545362        -0.658549         0.565815
 O         3.439014        -0.733786         1.564717
 C         3.453394         0.514640         0.720422
 C         2.664934         1.587058         1.338708
 C         1.437195         1.202949         1.635417
 C         1.106337        -0.187319         1.035743
 C         0.114399        -0.172996        -0.107811
 O         0.480488        -1.011163         2.028776
 H         3.432041        -1.232515        -1.339777
 H         2.944331        -2.557989        -0.149509
 H         1.734044        -1.528912        -1.156172
 H         4.403077         0.566492         0.142033
 H         3.106465         2.557548         1.422761
 H         0.668345         1.917483         2.027078
 H         0.432818         0.297787        -1.007967
 H        -0.147762        -1.186283        -0.414684
 H        -0.799658         0.287500         0.274054
 H         1.017034        -0.948446         2.880026
