19
Iteration:  1035charge 0 multiplicity 1
 C         2.728208        -1.659286        -0.553519
 C         2.628873        -0.627466         0.431170
 O         3.184869        -0.916770         1.706652
 C         3.545951         0.388786         0.978934
 C         2.750525         1.580981         1.583117
 C         1.461908         1.233656         1.494379
 C         1.125503        -0.112237         0.814501
 C        -0.121565         0.072006        -0.182665
 O         0.635322        -0.945948         1.861893
 H         1.974134        -2.388351        -0.382150
 H         2.763216        -1.326570        -1.556115
 H         3.719716        -2.181082        -0.397433
 H         4.623924         0.487531         0.696706
 H         3.205867         2.516675         1.832133
 H         0.664651         1.840104         1.877133
 H         0.132672        -0.143711        -1.198187
 H        -0.806571        -0.684385         0.107913
 H        -0.542927         1.029929        -0.074477
 H         1.268808        -0.736553         2.699978
