19
Iteration:  1706
 C         2.637904        -1.862732        -0.415922
 C         2.519587        -0.670248         0.574136
 O         3.566653        -0.677578         1.594175
 C         3.436170         0.467160         0.703205
 C         2.742581         1.501483         1.627862
 C         1.441491         1.169268         1.786840
 C         1.126764        -0.107511         0.985618
 C         0.274537         0.054099        -0.362370
 O         0.209441        -0.843153         1.729348
 H         1.924034        -2.612535        -0.035676
 H         2.250155        -1.597853        -1.355707
 H         3.686767        -2.441940        -0.379486
 H         4.333594         0.560222         0.042835
 H         3.337707         2.327319         2.059593
 H         0.881081         1.643343         2.534939
 H         0.629810         0.666148        -1.236265
 H        -0.232097        -0.826405        -0.713237
 H        -0.509907         0.632104         0.219932
 H         0.691768        -1.493488         2.384467
