19
Iteration:   212
 C         2.907186        -1.705232        -0.695823
 C         2.514574        -0.692086         0.378847
 O         3.299415        -0.880327         1.739399
 C         3.559857         0.256281         0.981763
 C         2.759881         1.463152         1.479797
 C         1.435723         1.251041         1.343722
 C         1.100591        -0.120989         0.850043
 C        -0.151220         0.009369        -0.087945
 O         0.496459        -0.644609         2.095449
 H         2.075083        -2.308953        -1.130775
 H         3.170131        -1.081980        -1.632817
 H         3.743728        -2.314081        -0.422355
 H         4.593928         0.359052         0.534671
 H         3.268770         2.237075         1.997611
 H         0.753894         1.850105         1.875259
 H        -0.319081        -0.932221        -0.643680
 H        -1.021605         0.071460         0.603056
 H        -0.122004         0.924272        -0.739077
 H         1.160972        -0.808813         2.696179
