19
Iteration:   865charge 0 multiplicity 1
 C         2.692369        -1.660810        -0.538730
 C         2.526536        -0.686151         0.562584
 O         3.275841        -0.888297         1.765782
 C         3.574700         0.328155         0.921456
 C         2.777277         1.548054         1.302786
 C         1.472862         1.236985         1.532451
 C         1.073299        -0.087259         0.995580
 C         0.126133         0.159378        -0.225310
 O         0.444804        -0.959668         1.879109
 H         2.074007        -2.591189        -0.327126
 H         2.239070        -1.286292        -1.452732
 H         3.814734        -1.930622        -0.782851
 H         4.601715         0.303121         0.543586
 H         3.212277         2.525846         1.397580
 H         0.621577         1.773778         1.925320
 H        -0.871079         0.579400         0.216571
 H         0.608234         0.889340        -0.974924
 H        -0.082928        -0.801105        -0.784244
 H         0.891140        -0.828977         2.812374
