19
Iteration:  3998
 C         2.693921        -1.640546        -0.722994
 C         2.534151        -0.725747         0.609612
 O         3.403919        -0.689822         1.755832
 C         3.470238         0.451019         0.764754
 C         2.616238         1.671986         1.276931
 C         1.405292         1.259193         1.549459
 C         1.081497        -0.110673         0.956862
 C         0.017483        -0.143029        -0.020089
 O         0.669747        -1.051296         1.984480
 H         2.960833        -2.674271        -0.391990
 H         1.653619        -1.709662        -1.175571
 H         3.560490        -1.248126        -1.267662
 H         4.490008         0.498003         0.243453
 H         3.015980         2.643752         1.570181
 H         0.587883         1.873582         2.033898
 H         0.355075        -0.150764        -1.130710
 H        -0.606168        -1.111092         0.110327
 H        -0.737891         0.705649         0.014638
 H         1.281936        -0.982385         2.676316
