19
Iteration:  1167charge 0 multiplicity 1
 C         2.587295        -1.784192        -0.470449
 C         2.500450        -0.597407         0.426740
 O         3.243521        -0.735895         1.735383
 C         3.558648         0.400544         0.858734
 C         2.751268         1.546297         1.419218
 C         1.504056         1.168926         1.665801
 C         1.095066        -0.112187         0.875245
 C         0.123368         0.197720        -0.206671
 O         0.567862        -1.064778         1.850279
 H         1.894736        -2.494016        -0.071046
 H         2.244607        -1.488763        -1.412937
 H         3.603698        -2.248700        -0.499049
 H         4.591011         0.409323         0.578230
 H         3.235966         2.508401         1.691664
 H         0.630254         1.766347         1.928227
 H         0.411569         1.127355        -0.601573
 H         0.133909        -0.600113        -0.849626
 H        -0.828838         0.202988         0.039835
 H         1.217482        -1.077972         2.497870
