19
Iteration:  4042charge 0 multiplicity 1
 C         2.669029        -1.816574        -0.541499
 C         2.494398        -0.603488         0.466625
 O         3.524483        -0.694967         1.538862
 C         3.425946         0.543831         0.729341
 C         2.628047         1.623709         1.447631
 C         1.354149         1.287625         1.521004
 C         1.109089        -0.149385         1.075603
 C         0.072931        -0.166790        -0.122652
 O         0.557157        -0.988485         2.062406
 H         2.353851        -2.834703        -0.323082
 H         2.171633        -1.458516        -1.510416
 H         3.774041        -1.821967        -0.639280
 H         4.396764         0.737185         0.160043
 H         3.110644         2.564399         1.678849
 H         0.518345         1.882439         2.005010
 H         0.424785         0.753751        -0.677581
 H         0.134996        -1.175911        -0.596223
 H        -0.938807         0.072669         0.258161
 H         1.266259        -1.274347         2.609833
