19
Iteration:  2494charge 0 multiplicity 1
 C         2.653118        -1.522974        -0.596155
 C         2.510286        -0.579331         0.545686
 O         3.271754        -0.970253         1.669433
 C         3.480835         0.372724         1.025495
 C         2.783687         1.570985         1.539886
 C         1.439984         1.393166         1.466923
 C         1.126022        -0.107314         0.922180
 C         0.179567        -0.158854        -0.279193
 O         0.495569        -0.923566         1.939977
 H         1.745498        -1.710161        -1.100026
 H         3.287620        -1.285096        -1.442022
 H         2.964039        -2.575381        -0.326152
 H         4.524531         0.340465         0.642057
 H         3.165016         2.598061         1.609841
 H         0.578715         2.048409         1.837842
 H         0.600778         0.237163        -1.209124
 H        -0.097140        -1.170930        -0.481039
 H        -0.756758         0.264604         0.020234
 H         1.185764        -0.935649         2.703328
