19
Iteration:  1590
 C         2.766676        -1.615150        -0.672642
 C         2.508113        -0.589898         0.429619
 O         3.308107        -1.028441         1.626739
 C         3.485043         0.250956         1.073855
 C         2.789677         1.475707         1.720331
 C         1.472756         1.450930         1.435643
 C         1.058549        -0.037110         0.853721
 C         0.048940        -0.180012        -0.221298
 O         0.503415        -0.694548         1.924812
 H         2.054355        -2.478805        -0.365422
 H         2.327160        -1.294560        -1.724921
 H         3.816359        -1.884577        -0.594768
 H         4.573145         0.342170         0.752550
 H         3.393820         2.261643         2.196382
 H         0.612438         1.962923         1.778981
 H         0.307924         0.155724        -1.284940
 H        -0.150234        -1.297842        -0.291535
 H        -0.943437         0.286295         0.015278
 H         1.026217        -0.415280         2.758409
