19
Iteration:  1629charge 0 multiplicity 1
 C         2.738202        -1.665071        -0.570559
 C         2.542009        -0.617206         0.446459
 O         3.162390        -0.890069         1.806344
 C         3.560855         0.303326         1.029135
 C         2.792737         1.540871         1.519136
 C         1.448947         1.293720         1.458456
 C         1.097439        -0.097115         0.775672
 C        -0.046269         0.046900        -0.235526
 O         0.612369        -0.907081         1.917950
 H         2.038464        -2.461015        -0.408662
 H         2.509037        -1.260605        -1.513249
 H         3.849714        -1.971191        -0.636392
 H         4.527708         0.320983         0.513635
 H         3.411052         2.287344         1.952858
 H         0.730212         1.863712         2.075654
 H         0.365837         0.631012        -1.056137
 H        -0.523084        -0.870460        -0.458276
 H        -0.817242         0.799552         0.086848
 H         1.459956        -1.120285         2.282681
