19
Iteration:   218
 C         2.872194        -1.650768        -0.736241
 C         2.506736        -0.682527         0.438999
 O         3.339843        -0.867946         1.753425
 C         3.528828         0.257641         0.959175
 C         2.830401         1.409192         1.453852
 C         1.471757         1.305979         1.325701
 C         1.056748        -0.121584         0.881788
 C        -0.127873        -0.037331        -0.067446
 O         0.450949        -0.659434         2.050155
 H         2.137080        -2.367212        -1.073653
 H         3.264408        -1.122814        -1.561587
 H         3.739217        -2.302962        -0.431457
 H         4.549616         0.360340         0.597894
 H         3.218737         2.251935         2.076530
 H         0.695326         1.905992         1.882287
 H        -0.297391        -0.964766        -0.616259
 H        -1.055140        -0.000657         0.496012
 H        -0.111193         0.856084        -0.643962
 H         1.098442        -0.808437         2.843944
