19
Iteration:  3875
 C         2.823003        -1.646030        -0.644261
 C         2.467478        -0.733776         0.535638
 O         3.439915        -0.717120         1.660447
 C         3.387960         0.390811         0.782467
 C         2.637242         1.588339         1.310328
 C         1.368606         1.346485         1.438839
 C         1.080169        -0.133489         0.962762
 C         0.042264        -0.050800        -0.000368
 O         0.600005        -1.050829         2.087431
 H         3.254770        -2.697952        -0.304639
 H         1.918011        -1.648722        -1.224084
 H         3.667038        -1.192900        -1.172813
 H         4.347387         0.557379         0.359880
 H         3.164013         2.544006         1.540768
 H         0.505496         1.939123         1.857293
 H         0.251113         0.614071        -0.830745
 H        -0.300751        -1.082481        -0.339391
 H        -1.011722         0.268284         0.337081
 H         1.446239        -1.022349         2.686545
