19
Iteration:  1461charge 0 multiplicity 1
 C         2.515256        -1.846860        -0.341008
 C         2.489316        -0.618036         0.512103
 O         3.402491        -0.810635         1.634904
 C         3.529540         0.445837         0.824225
 C         2.711646         1.537835         1.580151
 C         1.432698         1.191258         1.615934
 C         1.119234        -0.039338         0.871488
 C         0.170756         0.173102        -0.363230
 O         0.530600        -0.965774         1.839282
 H         1.909663        -2.604773         0.138526
 H         2.138936        -1.476190        -1.321601
 H         3.471792        -2.204139        -0.431214
 H         4.571763         0.430447         0.382343
 H         3.108255         2.194490         2.323714
 H         0.655799         1.633736         2.178305
 H         0.719320         0.831430        -1.064907
 H        -0.275211        -0.645322        -0.926732
 H        -0.650247         0.720608        -0.010794
 H         1.360127        -1.447725         2.241934
