19
Iteration:  2227
 C         2.587009        -1.620882        -0.631325
 C         2.503543        -0.658157         0.520185
 O         3.296432        -0.730765         1.716314
 C         3.488001         0.381965         0.898169
 C         2.716377         1.517896         1.520716
 C         1.405144         1.207280         1.614175
 C         1.196852        -0.062351         0.917203
 C         0.199091        -0.090008        -0.255460
 O         0.522330        -0.932715         1.911749
 H         1.704276        -2.252150        -0.845971
 H         2.828449        -1.154970        -1.611874
 H         3.438153        -2.342832        -0.384929
 H         4.362712         0.375536         0.270795
 H         3.313338         2.363093         1.897641
 H         0.563734         1.825244         1.924175
 H         0.829371         0.097866        -1.157921
 H        -0.349805        -1.072243        -0.324469
 H        -0.391996         0.830652        -0.013787
 H         1.006630        -1.027635         2.695629
