19
Iteration:  1488
 C         2.658969        -1.877199        -0.443349
 C         2.533012        -0.639506         0.421748
 O         3.280239        -0.795784         1.697982
 C         3.497190         0.365939         0.893651
 C         2.758100         1.486954         1.621312
 C         1.470125         1.278606         1.539721
 C         1.178241         0.016078         0.817280
 C         0.006974         0.175320        -0.235985
 O         0.591259        -0.987674         1.787819
 H         1.796879        -2.495738        -0.096851
 H         2.530807        -1.601550        -1.467410
 H         3.667107        -2.368561        -0.067398
 H         4.508086         0.337225         0.608944
 H         3.139774         2.398778         2.144243
 H         0.652458         1.888109         2.046938
 H         0.237947         0.843797        -1.087102
 H        -0.507103        -0.762467        -0.543544
 H        -0.876626         0.764542         0.226596
 H         1.239862        -1.011567         2.577054
