19
Iteration:   414charge 0 multiplicity 1
 C         2.491391        -1.816440        -0.479566
 C         2.503967        -0.610654         0.515723
 O         3.432992        -0.776791         1.639986
 C         3.528412         0.414937         0.826296
 C         2.720640         1.501216         1.571371
 C         1.450994         1.265717         1.554080
 C         1.105526        -0.035969         0.955675
 C         0.230408        -0.014662        -0.270553
 O         0.459480        -0.867029         1.898850
 H         1.485017        -2.270407        -0.581225
 H         2.767159        -1.455511        -1.492025
 H         3.233255        -2.636384        -0.173162
 H         4.446740         0.655442         0.192959
 H         3.268708         2.303884         2.101361
 H         0.664703         1.850542         2.072689
 H        -0.306047        -1.000591        -0.296657
 H        -0.489410         0.869280        -0.294621
 H         0.737461        -0.139714        -1.252780
 H         1.097950        -1.184491         2.524224
