19
Iteration:   215charge 0 multiplicity 1
 C         2.891222        -1.679196        -0.712173
 C         2.507845        -0.684175         0.404535
 O         3.322898        -0.869174         1.747434
 C         3.548885         0.254149         0.973418
 C         2.800151         1.430330         1.464307
 C         1.448098         1.278102         1.330923
 C         1.079811        -0.127686         0.865074
 C        -0.137345        -0.011976        -0.075756
 O         0.472194        -0.648209         2.070564
 H         2.089786        -2.369697        -1.141101
 H         3.230680        -1.084484        -1.635957
 H         3.748679        -2.317907        -0.438057
 H         4.537226         0.356041         0.592437
 H         3.245781         2.263929         2.060255
 H         0.710408         1.892013         1.910347
 H        -0.324807        -0.980412        -0.612230
 H        -1.069658         0.018106         0.549600
 H        -0.123598         0.942832        -0.698492
 H         1.127858        -0.820715         2.819617
