19
Iteration:  2611charge 0 multiplicity 1
 C         2.570984        -1.749498        -0.487848
 C         2.513783        -0.649207         0.657805
 O         3.360182        -0.724708         1.754124
 C         3.535801         0.439146         0.801129
 C         2.709297         1.608411         1.396276
 C         1.428483         1.238514         1.589502
 C         1.183655        -0.081777         0.959008
 C         0.184148         0.076901        -0.257076
 O         0.454230        -1.093695         1.807222
 H         2.435013        -1.173695        -1.382477
 H         3.514063        -2.270288        -0.635789
 H         1.741800        -2.486615        -0.376076
 H         4.470500         0.425552         0.286009
 H         3.236115         2.533976         1.646180
 H         0.753707         1.768283         2.311002
 H         0.370793         1.004506        -0.869624
 H         0.172644        -0.700443        -1.034137
 H        -0.805440         0.034791         0.194579
 H         1.125625        -1.497966         2.473375
