19
Iteration:  3213
 C         2.750803        -1.578693        -0.628514
 C         2.462527        -0.582521         0.493692
 O         3.461325        -0.739850         1.589649
 C         3.479707         0.462881         0.765470
 C         2.713020         1.623896         1.302671
 C         1.439074         1.235112         1.615682
 C         1.116841        -0.190855         1.061652
 C         0.062542        -0.182572        -0.057179
 O         0.455164        -1.059834         2.056756
 H         3.631791        -1.296159        -1.311930
 H         2.885380        -2.521441        -0.193578
 H         1.859217        -1.628111        -1.215215
 H         4.420949         0.670346         0.271369
 H         3.020911         2.687187         1.450650
 H         0.596701         1.813783         2.007300
 H         0.443168         0.293869        -1.033581
 H        -0.399298        -1.119781        -0.416939
 H        -0.800927         0.467385         0.101235
 H         0.947758        -0.891207         2.858555
