19
Iteration:  1657
 C         2.683480        -1.667963        -0.575233
 C         2.503400        -0.726420         0.585626
 O         3.281381        -0.890895         1.725340
 C         3.514597         0.349058         0.937344
 C         2.721194         1.590468         1.386120
 C         1.405814         1.301463         1.478723
 C         1.099922        -0.130325         0.994598
 C         0.244368         0.182291        -0.148380
 O         0.464156        -1.049528         1.880586
 H         1.973279        -2.540050        -0.559900
 H         2.374301        -1.061273        -1.523708
 H         3.694613        -1.909567        -0.583562
 H         4.476570         0.455086         0.419746
 H         3.348228         2.514045         1.312417
 H         0.588245         2.060246         1.703716
 H         0.844627         0.915502        -0.718599
 H         0.156453        -0.805050        -0.770988
 H        -0.719342         0.614045        -0.077836
 H         0.815532        -0.859628         2.704086
