19
Iteration:  2691
 C         2.809892        -1.560375        -0.673576
 C         2.481040        -0.614123         0.487247
 O         3.315683        -0.802616         1.765125
 C         3.498049         0.320211         0.930860
 C         2.764061         1.560162         1.428379
 C         1.445834         1.332502         1.510631
 C         1.061420        -0.118330         0.942547
 C         0.031619        -0.125636        -0.164439
 O         0.458383        -0.961850         1.976040
 H         3.708257        -1.355844        -1.166415
 H         2.801279        -2.639195        -0.495871
 H         2.133095        -1.496103        -1.522452
 H         4.580376         0.272586         0.575972
 H         3.250473         2.513301         1.640972
 H         0.831313         2.003210         2.073698
 H         0.597302        -0.001002        -1.079343
 H        -0.517944        -1.045201        -0.312452
 H        -0.572807         0.793708        -0.204644
 H         1.251867        -1.213977         2.598461
