19
Iteration:   100
 C         2.833689        -1.812048        -0.451891
 C         2.431417        -0.705603         0.581121
 O         3.543938        -0.794404         1.498548
 C         3.384221         0.360414         0.696673
 C         2.737988         1.504507         1.517076
 C         1.451594         1.298257         1.638564
 C         1.032830        -0.156946         1.051823
 C         0.225876         0.183397        -0.273860
 O         0.237703        -0.921675         2.005245
 H         2.448703        -2.756467        -0.071666
 H         2.518322        -1.618326        -1.446288
 H         3.978957        -1.883402        -0.440059
 H         4.078147         0.491089        -0.136330
 H         3.188684         2.545967         1.669641
 H         0.650491         2.015801         1.958071
 H         0.084219        -0.734077        -0.849051
 H        -0.722567         0.706660        -0.184503
 H         0.846717         0.823192        -0.856700
 H         0.803371        -1.068098         2.683406
