19
Iteration:  2954
 C         2.692608        -1.597797        -0.651372
 C         2.527276        -0.698456         0.577206
 O         3.350937        -0.814607         1.718534
 C         3.376284         0.470127         0.821975
 C         2.675918         1.676664         1.267079
 C         1.446545         1.342656         1.587620
 C         1.086614        -0.194853         1.008015
 C         0.127594        -0.112929        -0.182481
 O         0.576497        -1.043423         2.021971
 H         2.674082        -0.918032        -1.584634
 H         3.630527        -2.043182        -0.577748
 H         1.887754        -2.269249        -0.718257
 H         4.380964         0.481159         0.467597
 H         3.186918         2.555801         1.615891
 H         0.810297         2.023057         2.181290
 H         0.295939         0.862694        -0.684965
 H         0.165707        -0.989135        -0.857851
 H        -0.907228        -0.139117         0.099340
 H         1.399330        -1.331730         2.578183
