19
Iteration:  4721charge 0 multiplicity 1
 C         2.666180        -1.775033        -0.466234
 C         2.444998        -0.573563         0.400682
 O         3.409050        -0.731117         1.564838
 C         3.479901         0.434866         0.799996
 C         2.704499         1.633756         1.386723
 C         1.415115         1.299597         1.556573
 C         1.071217        -0.127169         1.052026
 C         0.070572        -0.117989        -0.094689
 O         0.595546        -0.986730         1.983945
 H         3.638928        -1.823499        -0.917737
 H         2.668045        -2.587791         0.294018
 H         1.915677        -1.802825        -1.256441
 H         4.376163         0.618606         0.235868
 H         3.288068         2.541284         1.557364
 H         0.636446         1.996804         1.910244
 H         0.161670         0.691261        -0.848254
 H         0.147420        -1.006837        -0.703024
 H        -0.949918        -0.032842         0.290377
 H         1.374530        -1.264997         2.532650
