19
Iteration:  2623charge 0 multiplicity 1
 C         2.562082        -1.739520        -0.488283
 C         2.514380        -0.641029         0.474020
 O         3.467927        -0.756474         1.748860
 C         3.417495         0.410189         0.871935
 C         2.725706         1.566417         1.482456
 C         1.426126         1.286037         1.620945
 C         1.085415        -0.127605         0.963701
 C         0.204082         0.036531        -0.246913
 O         0.511362        -1.019222         1.795287
 H         2.650147        -1.444127        -1.483695
 H         3.366782        -2.416409        -0.203153
 H         1.584521        -2.306886        -0.388106
 H         4.297548         0.676307         0.288460
 H         3.165637         2.536217         1.686900
 H         0.546488         1.952109         1.862819
 H         0.425907         0.985540        -0.759208
 H         0.322790        -0.867017        -0.846518
 H        -0.847064         0.129573         0.059909
 H         1.159270        -1.195153         2.441449
