19
Iteration:  1092
 C         2.624914        -1.571637        -0.658976
 C         2.577644        -0.678971         0.542596
 O         3.320890        -0.927427         1.660046
 C         3.511222         0.406103         0.943010
 C         2.786327         1.561495         1.459327
 C         1.473006         1.183658         1.543903
 C         1.140038        -0.162234         0.957188
 C         0.185446        -0.063460        -0.298701
 O         0.379770        -0.795325         2.023907
 H         2.036889        -2.466376        -0.433406
 H         2.182747        -1.027415        -1.467217
 H         3.705229        -1.867860        -0.907334
 H         4.452511         0.483681         0.439109
 H         3.158384         2.472279         2.042625
 H         0.649239         1.799200         1.952921
 H         0.455258         0.798989        -1.009003
 H         0.143783        -1.075107        -0.820651
 H        -0.863768         0.067131        -0.019309
 H         0.845284        -0.591715         2.920190
