19
Iteration:  2717charge 0 multiplicity 1
 C         2.755909        -1.444939        -0.587329
 C         2.514171        -0.597397         0.587048
 O         3.248557        -1.021259         1.796155
 C         3.490124         0.359083         0.912474
 C         2.713931         1.626006         1.355811
 C         1.416236         1.305169         1.341318
 C         1.163369        -0.114763         0.921040
 C         0.052451        -0.040082        -0.113251
 O         0.557003        -1.030729         1.973507
 H         3.914888        -1.699431        -0.692131
 H         2.231994        -2.386548        -0.763844
 H         2.615045        -0.898568        -1.526055
 H         4.455314         0.247199         0.499987
 H         3.105198         2.640748         1.495485
 H         0.634514         2.073265         1.537874
 H         0.258978         0.454662        -1.117655
 H        -0.213570        -1.116800        -0.243407
 H        -0.816308         0.495267         0.244812
 H         1.207130        -0.973302         2.751220
