19
Iteration:   694
 C         2.738958        -1.839774        -0.456615
 C         2.452788        -0.740232         0.496559
 O         3.405901        -0.831167         1.638001
 C         3.450392         0.399537         0.769932
 C         2.804237         1.456329         1.574416
 C         1.463921         1.326463         1.542814
 C         1.051905        -0.056801         0.971818
 C         0.220167         0.095704        -0.335296
 O         0.309149        -0.824521         1.968987
 H         2.339852        -2.774590        -0.123500
 H         2.240886        -1.637670        -1.366155
 H         3.805069        -2.045155        -0.608426
 H         4.310943         0.662685         0.109903
 H         3.302547         2.235225         2.227999
 H         0.790839         2.022834         2.144472
 H         0.625256        -0.454511        -1.133185
 H        -0.786124        -0.192265        -0.148418
 H         0.266172         1.114736        -0.642846
 H         1.026678        -1.001111         2.562717
