19
Iteration:   688
 C         2.762681        -1.876774        -0.427669
 C         2.489049        -0.687079         0.526147
 O         3.424144        -0.874132         1.597570
 C         3.449816         0.433420         0.737404
 C         2.767236         1.445333         1.585547
 C         1.422255         1.318163         1.612769
 C         1.027883        -0.063502         0.937978
 C         0.232279         0.114702        -0.340102
 O         0.327843        -0.784750         1.970212
 H         2.246314        -2.766099         0.060340
 H         2.285549        -1.740528        -1.479651
 H         3.790046        -2.136402        -0.688303
 H         4.352082         0.492920         0.164747
 H         3.252583         2.216286         2.133964
 H         0.782169         1.940656         2.153720
 H         0.576786        -0.565570        -1.196638
 H        -0.871818        -0.165091        -0.206243
 H         0.263003         1.203458        -0.696436
 H         1.030539        -1.011572         2.583761
