19
Iteration:  1060charge 0 multiplicity 1
 C         2.572435        -1.596746        -0.574724
 C         2.471900        -0.575984         0.483201
 O         3.265224        -0.885566         1.717573
 C         3.515118         0.289484         1.019567
 C         2.746487         1.510945         1.539300
 C         1.439504         1.404304         1.435345
 C         1.063272        -0.025543         0.929087
 C         0.076442        -0.048214        -0.253933
 O         0.695211        -0.961577         1.915417
 H         1.914773        -2.477105        -0.430932
 H         2.425767        -1.176792        -1.561287
 H         3.638621        -2.013965        -0.607976
 H         4.473244         0.442643         0.559149
 H         3.281754         2.102848         2.332535
 H         0.761814         2.217353         1.722225
 H         0.662291        -0.100392        -1.243944
 H        -0.358944        -1.122640        -0.263104
 H        -0.663498         0.772206        -0.266411
 H         1.432808        -1.452576         2.200164
