19
Iteration:  4165
 C         2.763335        -1.700672        -0.569260
 C         2.508543        -0.645992         0.466780
 O         3.474679        -0.678506         1.536371
 C         3.409931         0.509282         0.683320
 C         2.610384         1.584308         1.428492
 C         1.354197         1.259135         1.557950
 C         1.129632        -0.205989         1.003229
 C        -0.032888        -0.174531        -0.038964
 O         0.644450        -0.973132         2.088019
 H         2.414643        -1.172565        -1.397860
 H         3.799385        -1.914810        -0.813106
 H         2.151129        -2.602109        -0.349410
 H         4.187747         0.804469         0.029631
 H         3.098507         2.548130         1.740630
 H         0.495091         1.761203         2.013405
 H         0.455874        -0.083517        -1.009375
 H        -0.488614        -1.114738        -0.194715
 H        -0.671212         0.608596         0.269076
 H         1.299466        -0.781859         2.840349
