19
Iteration:  4024
 C         2.689202        -1.572878        -0.555360
 C         2.492406        -0.594733         0.532920
 O         3.425230        -0.681313         1.593169
 C         3.465939         0.485107         0.759752
 C         2.695459         1.623188         1.307078
 C         1.443884         1.226013         1.538449
 C         1.087133        -0.193320         0.986354
 C         0.075441        -0.148509        -0.110266
 O         0.532839        -1.094122         2.107991
 H         2.559067        -2.441401         0.065053
 H         1.846273        -1.598150        -1.242992
 H         3.714142        -1.532754        -0.989287
 H         4.306119         0.548321         0.094987
 H         3.096491         2.609761         1.530892
 H         0.733266         1.961645         1.914132
 H         0.393891         0.202276        -1.133978
 H        -0.155553        -1.204710        -0.355634
 H        -0.870065         0.280006         0.153711
 H         1.216272        -1.182323         2.738469
