19
Iteration:  1948charge 0 multiplicity 1
 C         2.815434        -1.726630        -0.524506
 C         2.479842        -0.648607         0.516926
 O         3.341887        -0.926647         1.663709
 C         3.482224         0.368843         0.891178
 C         2.758466         1.546704         1.566441
 C         1.454581         1.307155         1.471106
 C         1.090489        -0.065236         0.916956
 C         0.021256         0.098221        -0.259480
 O         0.436446        -0.894511         1.953561
 H         2.559103        -2.798609        -0.354284
 H         2.517894        -1.480704        -1.575144
 H         3.870849        -1.606762        -0.588670
 H         4.339018         0.417036         0.239940
 H         3.313826         2.312273         2.100967
 H         0.636096         1.805941         1.971441
 H         0.278294         0.900395        -0.987187
 H         0.029236        -0.886539        -0.784518
 H        -0.841855         0.434701         0.242444
 H         1.169364        -1.391609         2.415690
