19
Iteration:  2979charge 0 multiplicity 1
 C         2.665065        -1.451139        -0.691434
 C         2.554809        -0.666992         0.579325
 O         3.250721        -0.858288         1.877000
 C         3.466533         0.427976         0.838189
 C         2.637694         1.584560         1.250492
 C         1.377462         1.224713         1.393489
 C         1.149469        -0.158980         0.972009
 C         0.082970        -0.029757        -0.109758
 O         0.723990        -1.062232         2.028165
 H         2.618918        -0.728222        -1.495737
 H         3.662747        -1.950816        -0.721722
 H         1.767162        -2.128173        -0.647299
 H         4.537813         0.351040         0.508352
 H         3.004268         2.641866         1.238183
 H         0.547081         1.720850         1.854707
 H         0.316270         0.723874        -0.926214
 H        -0.274995        -1.051702        -0.387287
 H        -0.969752         0.233611         0.248329
 H         1.550476        -1.123973         2.566181
