19
Iteration:  3114charge 0 multiplicity 1
 C         2.701972        -1.671863        -0.597972
 C         2.535623        -0.631882         0.604937
 O         3.336011        -0.558926         1.782181
 C         3.571588         0.408391         0.726648
 C         2.779204         1.629177         1.287808
 C         1.485803         1.218426         1.561705
 C         1.057174        -0.192281         1.002596
 C        -0.065613         0.038863        -0.046964
 O         0.538493        -1.220785         1.891027
 H         2.517886        -1.314689        -1.673416
 H         3.682072        -2.148056        -0.612247
 H         1.949642        -2.491689        -0.511359
 H         4.596901         0.517295         0.478163
 H         2.971964         2.694330         1.447913
 H         0.700712         1.879368         1.913406
 H         0.395187         0.540804        -0.924436
 H        -0.475301        -0.916871        -0.442587
 H        -0.939377         0.611797         0.290400
 H         1.381022        -1.351475         2.301948
