19
Iteration:  4395
 C         2.745024        -1.833544        -0.500337
 C         2.530495        -0.690223         0.476142
 O         3.438609        -0.542471         1.596176
 C         3.389266         0.527910         0.646616
 C         2.674176         1.694083         1.280637
 C         1.444413         1.277501         1.561841
 C         1.177323        -0.208487         1.026310
 C        -0.109450        -0.037260         0.097765
 O         0.601717        -1.173163         1.948686
 H         2.976988        -1.433143        -1.507418
 H         3.734702        -2.199546        -0.140310
 H         1.810349        -2.437642        -0.435139
 H         4.393490         0.657653         0.087982
 H         3.305838         2.558275         1.464150
 H         0.570237         1.721501         2.035104
 H        -0.019152         0.591434        -0.783060
 H        -0.521083        -0.929714        -0.379080
 H        -0.798639         0.563730         0.728011
 H         1.251866        -1.268429         2.636469
