19
Iteration:  1870charge 0 multiplicity 1
 C         2.727861        -1.466800        -0.699289
 C         2.552878        -0.655618         0.489094
 O         3.217982        -1.063457         1.704735
 C         3.475236         0.293546         1.067939
 C         2.761224         1.524395         1.603275
 C         1.429457         1.374423         1.379995
 C         1.098904         0.004919         0.838797
 C         0.084778        -0.233371        -0.246818
 O         0.586944        -0.680527         2.039951
 H         1.850459        -2.051006        -0.914242
 H         2.850852        -1.007181        -1.647001
 H         3.439102        -2.277207        -0.519776
 H         4.434750         0.312240         0.563715
 H         3.178625         2.315936         2.206731
 H         0.574077         2.015501         1.679934
 H         0.508749        -0.096544        -1.245678
 H        -0.218818        -1.270358        -0.100970
 H        -0.841455         0.242263        -0.003227
 H         1.339164        -1.238297         2.374027
