19
Iteration:  2069
 C         2.824295        -1.765641        -0.585743
 C         2.532971        -0.674207         0.474766
 O         3.387321        -0.718012         1.715034
 C         3.471153         0.405972         0.829220
 C         2.751156         1.516103         1.426117
 C         1.489677         1.115350         1.663634
 C         1.020117        -0.116599         0.977314
 C         0.062888         0.150947        -0.208275
 O         0.356441        -0.938918         1.874472
 H         2.177272        -2.694684        -0.447516
 H         2.852886        -1.408023        -1.667817
 H         3.838279        -2.149852        -0.446705
 H         4.432785         0.682994         0.300648
 H         3.280332         2.394792         1.827380
 H         0.751049         1.619472         2.306335
 H         0.784353         0.139061        -1.086976
 H        -0.578787        -0.773194        -0.239438
 H        -0.454150         1.123940        -0.198659
 H         0.741184        -0.873785         2.793082
