19
Iteration:  2967
 C         2.651750        -1.517135        -0.698457
 C         2.538951        -0.676887         0.619810
 O         3.293992        -0.887632         1.914380
 C         3.435949         0.449763         0.819883
 C         2.660871         1.686098         1.164422
 C         1.385327         1.254784         1.542059
 C         1.116248        -0.180201         0.991363
 C         0.051078        -0.097929        -0.160965
 O         0.706364        -1.033505         2.007097
 H         2.660351        -0.739614        -1.519455
 H         3.543274        -2.085685        -0.831583
 H         1.924099        -2.263831        -1.019925
 H         4.378255         0.571323         0.269097
 H         3.156448         2.617529         1.524709
 H         0.607932         1.876035         1.976732
 H         0.446153         0.744049        -0.841018
 H         0.079555        -0.905520        -0.919135
 H        -0.835468         0.283897         0.384565
 H         1.510401        -1.258360         2.408773
