19
Iteration:     3charge 0 multiplicity 1
 C         2.629646        -1.680242        -0.537385
 C         2.503051        -0.644164         0.531166
 O         3.324461        -0.835969         1.694332
 C         3.493795         0.358877         0.892366
 C         2.772715         1.565844         1.451157
 C         1.457491         1.292237         1.476910
 C         1.102282        -0.086869         0.925073
 C         0.091586        -0.023560        -0.201848
 O         0.527080        -0.935040         1.933220
 H         2.044630        -2.556712        -0.278549
 H         2.261440        -1.317214        -1.461314
 H         3.717572        -1.941401        -0.559966
 H         4.450152         0.530673         0.453421
 H         3.306016         2.460168         1.756583
 H         0.710589         2.001036         1.831433
 H        -0.081620        -1.072988        -0.510285
 H        -0.815882         0.467820         0.177123
 H         0.430139         0.587390        -1.030099
 H         1.303097        -1.077000         2.629891
