19
Iteration:  4907
 C         2.601455        -1.737316        -0.442359
 C         2.499050        -0.701173         0.590606
 O         3.388644        -0.540716         1.763829
 C         3.401286         0.446265         0.662860
 C         2.727059         1.553193         1.212487
 C         1.481556         1.196078         1.558519
 C         1.144512        -0.185924         1.001069
 C         0.051630         0.035339        -0.086385
 O         0.603242        -1.105884         1.874132
 H         3.641014        -1.870983        -0.847722
 H         2.202577        -2.807298        -0.106767
 H         2.172309        -1.339865        -1.408963
 H         4.351750         0.530083         0.088678
 H         3.146411         2.471174         1.506135
 H         0.746749         1.679877         2.194330
 H         0.389008         0.805635        -0.838813
 H        -0.125584        -0.954167        -0.479681
 H        -0.683243         0.592456         0.468357
 H         0.973540        -0.906754         2.751716
