19
Iteration:  1935
 C         2.864855        -1.573948        -0.633550
 C         2.500475        -0.744898         0.542671
 O         3.264066        -0.880387         1.728680
 C         3.473501         0.283751         0.961362
 C         2.741688         1.466224         1.443792
 C         1.400470         1.267419         1.463941
 C         1.139426        -0.093453         0.873713
 C         0.080493         0.062232        -0.123575
 O         0.473196        -0.825840         1.912464
 H         2.417549        -2.582180        -0.410386
 H         2.341639        -1.144738        -1.486704
 H         3.973719        -1.744818        -0.809959
 H         4.466127         0.400909         0.559664
 H         3.211741         2.345396         1.819345
 H         0.600901         1.946165         1.795555
 H         0.424631         0.704695        -0.943475
 H        -0.377361        -0.861676        -0.519496
 H        -0.826919         0.524347         0.343324
 H         1.116607        -1.166702         2.552850
