19
Iteration:  3306
 C         2.530731        -1.536546        -0.652993
 C         2.493748        -0.593170         0.503159
 O         3.461437        -0.842069         1.608249
 C         3.373893         0.493768         0.830263
 C         2.688613         1.674238         1.441863
 C         1.399824         1.291690         1.439573
 C         1.142688        -0.077493         0.993818
 C         0.160675        -0.331417        -0.084142
 O         0.645066        -0.994958         2.082960
 H         3.257508        -2.283302        -0.445637
 H         1.498298        -2.052108        -0.789429
 H         2.747571        -0.914913        -1.627261
 H         4.251858         0.670303         0.200561
 H         3.310257         2.549330         1.797732
 H         0.599498         1.912281         1.788610
 H         0.202885         0.225009        -0.993166
 H         0.058530        -1.403659        -0.287166
 H        -0.885692        -0.158572         0.310853
 H         1.341178        -1.070377         2.827899
