19
Iteration:  2806charge 0 multiplicity 1
 C         2.741457        -1.699137        -0.548573
 C         2.581014        -0.665069         0.489728
 O         3.426919        -0.800502         1.648906
 C         3.469566         0.513997         0.851194
 C         2.748492         1.558115         1.512481
 C         1.440334         1.326701         1.506175
 C         1.084794        -0.203420         0.948987
 C        -0.034183        -0.063978        -0.195852
 O         0.466240        -0.972460         1.959628
 H         2.171675        -2.542201        -0.064042
 H         2.226700        -1.274746        -1.446540
 H         3.850390        -1.901720        -0.693767
 H         4.379682         0.735937         0.290266
 H         3.222535         2.440388         1.913350
 H         0.689707         1.944745         1.978816
 H         0.311061         0.771606        -0.855661
 H        -0.071651        -0.870941        -0.927396
 H        -0.996961         0.271590         0.242643
 H         1.109881        -1.284166         2.554239
