19
Iteration:   913charge 0 multiplicity 1
 C         2.684220        -1.802087        -0.315130
 C         2.513712        -0.567172         0.467261
 O         3.359465        -0.886971         1.691963
 C         3.544818         0.411892         0.851781
 C         2.752565         1.438356         1.493147
 C         1.468016         1.266922         1.639455
 C         1.045744         0.005564         0.844177
 C        -0.054348         0.236224        -0.283378
 O         0.573545        -1.028015         1.771518
 H         2.027069        -2.557688         0.137129
 H         2.423499        -1.777479        -1.420725
 H         3.676554        -2.075412        -0.264474
 H         4.492336         0.587131         0.306643
 H         3.333709         2.268432         1.983058
 H         0.794649         1.984160         2.198160
 H        -0.290774         1.219532        -0.434273
 H         0.269983        -0.269722        -1.140257
 H        -0.875655        -0.362628         0.020131
 H         1.323584        -1.122633         2.322109
