19
Iteration:  4359charge 0 multiplicity 1
 C         2.648695        -1.689283        -0.484782
 C         2.493381        -0.651211         0.549560
 O         3.579156        -0.670004         1.518963
 C         3.372795         0.507230         0.648171
 C         2.594498         1.663081         1.216771
 C         1.369698         1.252318         1.676538
 C         1.148232        -0.202317         1.045179
 C         0.056824        -0.095918        -0.137801
 O         0.565280        -1.075292         2.083776
 H         2.160291        -1.445895        -1.411617
 H         3.707508        -1.875870        -0.576582
 H         2.397853        -2.694465        -0.179062
 H         4.195561         0.791807         0.025943
 H         3.086111         2.566273         1.573815
 H         0.696062         1.703720         2.430089
 H         0.716568         0.442953        -0.827854
 H        -0.250016        -1.120810        -0.360057
 H        -0.837815         0.401730         0.207690
 H         1.171332        -1.116982         2.803360
