19
Iteration:  2149
 C         2.798986        -1.455513        -0.696436
 C         2.605941        -0.669065         0.479545
 O         3.070176        -0.969949         1.769882
 C         3.530725         0.274610         1.051515
 C         2.799329         1.586922         1.470836
 C         1.445151         1.289343         1.376081
 C         1.030932        -0.119021         0.893238
 C        -0.011664        -0.172250        -0.219980
 O         0.653641        -0.795466         2.021226
 H         2.132712        -2.331781        -0.710301
 H         2.387869        -0.753360        -1.441129
 H         3.864905        -1.803946        -1.061330
 H         4.558830         0.231045         0.756517
 H         3.246128         2.465625         1.984109
 H         0.728249         2.035203         1.694679
 H         0.187490         0.701171        -0.876604
 H        -0.009122        -1.119295        -0.784555
 H        -1.014268        -0.138950         0.383041
 H         1.497231        -0.731525         2.643962
