19
Iteration:   875
 C         2.698082        -1.755917        -0.575616
 C         2.588769        -0.657529         0.480294
 O         3.204844        -0.824057         1.793274
 C         3.518521         0.354797         0.880212
 C         2.780577         1.549118         1.348623
 C         1.492873         1.261098         1.511466
 C         1.135110        -0.087656         0.934295
 C         0.132295         0.162092        -0.122690
 O         0.405634        -0.998195         1.867144
 H         2.186166        -2.646217        -0.131639
 H         2.324098        -1.432271        -1.538790
 H         3.822700        -2.061641        -0.676070
 H         4.595081         0.394336         0.704240
 H         3.206615         2.461177         1.722328
 H         0.842356         1.965271         2.034282
 H        -0.703563         0.906092         0.217166
 H         0.660895         0.717050        -0.991733
 H        -0.356573        -0.794529        -0.518510
 H         1.051696        -1.137001         2.628700
