19
Iteration:   529charge 0 multiplicity 1
 C         2.591478        -1.623720        -0.691438
 C         2.450548        -0.648639         0.488916
 O         3.299313        -0.957237         1.676286
 C         3.504191         0.342301         1.058452
 C         2.912844         1.522552         1.668143
 C         1.529308         1.356094         1.373042
 C         1.119114        -0.065686         0.861510
 C         0.151458        -0.262655        -0.238590
 O         0.410195        -0.632877         1.966254
 H         1.945793        -2.473522        -0.562069
 H         2.228401        -1.141090        -1.547199
 H         3.639005        -1.933877        -0.838422
 H         4.540073         0.533491         0.702903
 H         3.328847         2.342220         2.275404
 H         0.641704         1.914244         1.711050
 H         0.298548        -1.211630        -0.726994
 H        -0.714599        -0.338304         0.352432
 H         0.032426         0.467773        -0.988252
 H         1.157447        -1.020024         2.598826
