19
Iteration:  1661
 C         2.656478        -1.657011        -0.561125
 C         2.501207        -0.700349         0.584443
 O         3.306851        -0.881804         1.718720
 C         3.519251         0.342226         0.917062
 C         2.736938         1.580140         1.376387
 C         1.414750         1.327605         1.497011
 C         1.122137        -0.133808         1.006164
 C         0.280273         0.143285        -0.168584
 O         0.396214        -1.066005         1.881183
 H         2.026926        -2.522234        -0.539664
 H         2.355476        -1.018248        -1.331021
 H         3.765945        -2.003420        -0.594913
 H         4.363758         0.530167         0.240793
 H         3.201656         2.542115         1.318742
 H         0.613776         2.019906         1.798346
 H         0.945713         0.835307        -0.678484
 H         0.208414        -0.584896        -0.962681
 H        -0.738696         0.584288         0.000103
 H         0.789506        -0.924299         2.838410
