19
Iteration:  3863
 C         2.812911        -1.662980        -0.604107
 C         2.545289        -0.643503         0.475034
 O         3.325816        -0.693390         1.681433
 C         3.441266         0.494734         0.731991
 C         2.706063         1.585381         1.367582
 C         1.381807         1.259911         1.457941
 C         1.103711        -0.249401         1.016163
 C        -0.073467        -0.079372        -0.075249
 O         0.629234        -1.014068         2.076405
 H         2.893523        -2.698998        -0.131139
 H         2.010307        -1.828116        -1.350842
 H         3.728965        -1.418803        -1.207464
 H         4.330142         0.596139         0.104716
 H         3.134687         2.552264         1.653165
 H         0.722153         1.986347         2.044670
 H         0.309927         0.473592        -0.956788
 H        -0.462009        -1.066824        -0.433525
 H        -0.740255         0.551151         0.534456
 H         1.340333        -1.152015         2.685796
