19
Iteration:  4531
 C         2.705271        -1.599592        -0.714949
 C         2.552638        -0.654606         0.445414
 O         3.351086        -0.746183         1.639910
 C         3.455239         0.406570         0.829947
 C         2.675015         1.640637         1.341485
 C         1.422535         1.237981         1.453872
 C         1.106633        -0.206431         0.969108
 C        -0.137022        -0.244894         0.013279
 O         0.745258        -0.854738         2.131307
 H         1.876724        -2.157283        -1.234832
 H         3.312518        -1.145562        -1.540277
 H         3.345807        -2.491186        -0.413324
 H         4.478599         0.538527         0.496712
 H         2.806803         2.639884         1.725844
 H         0.602966         1.826099         1.839431
 H         0.100377         0.213837        -0.986923
 H        -0.450512        -1.315725         0.017057
 H        -0.853181         0.536783         0.392438
 H         1.440588        -0.850963         2.806322
