19
Iteration:  2921
 C         2.719561        -1.730429        -0.466480
 C         2.535000        -0.596344         0.460574
 O         3.532916        -0.713570         1.528294
 C         3.445373         0.525014         0.758833
 C         2.718289         1.541397         1.569012
 C         1.394468         1.214805         1.584561
 C         1.071162        -0.185313         0.931390
 C        -0.003644        -0.101017        -0.169654
 O         0.482296        -0.954602         1.932387
 H         2.287064        -1.650562        -1.517971
 H         3.727016        -2.083896        -0.509880
 H         2.180783        -2.524680        -0.017999
 H         4.355808         0.922278         0.363158
 H         3.186748         2.282498         2.201214
 H         0.643580         1.933715         2.028198
 H         0.296145         0.727653        -0.842936
 H        -0.005162        -1.033903        -0.750483
 H        -0.870456         0.127763         0.412436
 H         0.956586        -0.892906         2.732697
