19
Iteration:  1730
 C         2.652383        -1.953058        -0.276806
 C         2.493006        -0.583787         0.458843
 O         3.541738        -0.749726         1.482502
 C         3.497909         0.492563         0.820305
 C         2.719357         1.510253         1.650586
 C         1.431149         1.132090         1.633052
 C         1.034951        -0.024812         0.963767
 C         0.245934         0.222715        -0.293830
 O         0.300375        -1.029002         1.777184
 H         2.039282        -2.773478         0.190061
 H         2.203505        -1.746346        -1.285290
 H         3.712833        -2.300092        -0.302009
 H         4.334604         0.679311         0.136373
 H         3.130948         2.429898         2.162347
 H         0.767904         1.751717         2.256289
 H         1.081439         0.494750        -1.015344
 H        -0.317723        -0.649587        -0.730765
 H        -0.437406         1.094225        -0.205697
 H         0.672953        -0.941027         2.654908
