19
Iteration:   626
 C         2.511158        -1.700127        -0.375760
 C         2.470722        -0.650420         0.653310
 O         3.342890        -0.787057         1.822315
 C         3.497796         0.350496         0.846380
 C         2.793407         1.619982         1.278289
 C         1.524565         1.285896         1.586239
 C         1.113334        -0.070146         0.978699
 C         0.210880         0.172324        -0.237768
 O         0.471701        -1.163380         1.670134
 H         1.950640        -2.604110        -0.160803
 H         2.006354        -1.212150        -1.173399
 H         3.543293        -1.985402        -0.657718
 H         4.420721         0.195635         0.233954
 H         3.335159         2.520707         1.415667
 H         0.920170         2.022456         2.048316
 H        -0.420432        -0.704743        -0.311503
 H        -0.377424         0.986149         0.082456
 H         0.708588         0.312845        -1.151991
 H         0.975999        -1.293116         2.540493
