19
Iteration:  4195
 C         2.589715        -1.652378        -0.602706
 C         2.497163        -0.542669         0.448972
 O         3.515406        -0.725096         1.523972
 C         3.456772         0.554561         0.758552
 C         2.715318         1.650426         1.451815
 C         1.388551         1.286271         1.543338
 C         1.066358        -0.167136         1.010225
 C         0.053277        -0.427970        -0.116837
 O         0.590486        -0.914727         2.145311
 H         2.592766        -1.007952        -1.506168
 H         3.484469        -2.342461        -0.346350
 H         1.608187        -2.246788        -0.614816
 H         4.277038         0.877717         0.157390
 H         3.198841         2.598376         1.797217
 H         0.717182         1.864275         2.186709
 H         0.378502         0.207410        -1.026562
 H         0.070991        -1.508724        -0.390343
 H        -1.022140        -0.230040         0.037343
 H         1.360048        -1.246985         2.576652
