19
Iteration:   347charge 0 multiplicity 1
 C         2.704116        -1.924740        -0.397732
 C         2.500544        -0.724602         0.565550
 O         3.363961        -0.702051         1.742280
 C         3.472752         0.377369         0.756792
 C         2.893276         1.628610         1.341968
 C         1.627468         1.231828         1.601148
 C         1.089446        -0.102000         0.952205
 C         0.050874         0.264103        -0.147479
 O         0.300572        -1.007898         1.750239
 H         2.248910        -2.889295        -0.021332
 H         2.155298        -1.656068        -1.309449
 H         3.835424        -2.102448        -0.598887
 H         4.344002         0.285460         0.115504
 H         3.391055         2.528694         1.651662
 H         0.844257         1.648181         2.177831
 H        -0.032015        -0.556523        -0.934107
 H        -0.840776         0.346436         0.547767
 H         0.298533         1.173463        -0.742015
 H         0.619129        -1.289340         2.655836
