19
Iteration:  2754charge 0 multiplicity 1
 C         2.732641        -1.676216        -0.726337
 C         2.527457        -0.621057         0.436796
 O         3.248174        -0.848007         1.779980
 C         3.520235         0.429750         0.926089
 C         2.765842         1.565577         1.617116
 C         1.447531         1.264394         1.404693
 C         1.086998        -0.055482         0.838115
 C        -0.022847        -0.153515        -0.274742
 O         0.613474        -0.874453         2.115410
 H         3.204176        -2.465215        -0.266693
 H         1.697155        -1.957912        -0.976528
 H         3.303904        -1.197695        -1.593664
 H         4.583417         0.567589         0.544167
 H         3.045337         2.519247         2.073615
 H         0.532964         1.731778         1.722796
 H         0.062751         0.761874        -0.865049
 H         0.081747        -0.960980        -1.007736
 H        -0.962187        -0.202805         0.350143
 H         1.529556        -1.143089         2.537687
