19
Iteration:  3288charge 0 multiplicity 1
 C         2.609590        -1.699712        -0.707250
 C         2.539663        -0.573566         0.416327
 O         3.289860        -0.710080         1.569977
 C         3.505502         0.471248         0.853734
 C         2.692929         1.614814         1.529993
 C         1.378842         1.387676         1.511988
 C         1.093467        -0.149530         1.003794
 C        -0.004381        -0.297060        -0.019722
 O         0.776196        -1.011047         2.052685
 H         3.442804        -2.381892        -0.382248
 H         1.724852        -2.246609        -0.909896
 H         2.844908        -1.167287        -1.609113
 H         4.492574         0.575338         0.448543
 H         3.142464         2.620296         1.689923
 H         0.533015         2.042346         1.762104
 H         0.375512         0.116871        -1.027005
 H        -0.399758        -1.316509        -0.276386
 H        -0.930018         0.285208         0.011079
 H         1.494423        -0.901117         2.766050
