19
Iteration:  1197charge 0 multiplicity 1
 C         2.395915        -1.732898        -0.459642
 C         2.498440        -0.603614         0.520112
 O         3.384067        -0.822363         1.769595
 C         3.478047         0.426224         0.887122
 C         2.763416         1.582282         1.496399
 C         1.396758         1.345939         1.521588
 C         1.152572        -0.025048         0.909937
 C         0.220314         0.126242        -0.229941
 O         0.631887        -1.188145         1.754141
 H         1.707777        -2.417173         0.011932
 H         1.905143        -1.352696        -1.322208
 H         3.380079        -2.272840        -0.706299
 H         4.470244         0.518449         0.479797
 H         3.249827         2.450093         2.040118
 H         0.552530         1.847889         1.991759
 H         0.722743         0.355315        -1.213700
 H        -0.220624        -0.873581        -0.303211
 H        -0.644666         0.905770        -0.106918
 H         1.322347        -1.293553         2.496284
