19
Iteration:  4061
 C         2.691943        -1.765829        -0.486650
 C         2.560526        -0.697285         0.509647
 O         3.565073        -0.675536         1.534393
 C         3.344333         0.521469         0.714055
 C         2.577867         1.604866         1.431407
 C         1.334889         1.258029         1.597907
 C         1.129861        -0.142346         0.936032
 C         0.053183        -0.108968        -0.183881
 O         0.623115        -0.935038         2.058433
 H         1.795772        -2.478785        -0.226087
 H         2.534194        -1.588139        -1.552644
 H         3.445619        -2.520317        -0.368425
 H         4.153481         0.776636        -0.004979
 H         3.086473         2.392576         2.011872
 H         0.467621         1.584538         2.193089
 H         0.034107         0.878992        -0.535345
 H         0.103788        -1.058127        -0.716992
 H        -0.833556        -0.182785         0.505094
 H         1.460436        -0.932621         2.479322
