19
Iteration:  3304charge 0 multiplicity 1
 C         2.534035        -1.551537        -0.668796
 C         2.471237        -0.609742         0.505588
 O         3.435517        -0.834553         1.602693
 C         3.375595         0.515278         0.834457
 C         2.703781         1.677598         1.471909
 C         1.407654         1.303771         1.443255
 C         1.142257        -0.092653         0.993711
 C         0.150868        -0.330507        -0.083319
 O         0.666399        -1.000472         2.073060
 H         3.247431        -2.320659        -0.465147
 H         1.523948        -2.064699        -0.780122
 H         2.773188        -1.005683        -1.634572
 H         4.287240         0.705384         0.204351
 H         3.239478         2.597407         1.736819
 H         0.614979         1.989113         1.742545
 H         0.278372         0.198064        -0.992981
 H         0.098032        -1.409884        -0.224001
 H        -0.859892        -0.129169         0.366994
 H         1.308477        -1.012048         2.773419
