19
Iteration:  4130
 C         2.761265        -1.654791        -0.515419
 C         2.515665        -0.600581         0.495829
 O         3.424373        -0.675866         1.670941
 C         3.437294         0.471051         0.763721
 C         2.611793         1.624551         1.166015
 C         1.365291         1.236496         1.538757
 C         1.126054        -0.176572         1.004852
 C        -0.036442        -0.045023         0.007183
 O         0.680569        -1.134030         2.026573
 H         1.842919        -1.736764        -1.055044
 H         3.551994        -1.505473        -1.309927
 H         2.831741        -2.740104        -0.300733
 H         4.372359         0.531591         0.232863
 H         3.005071         2.632008         1.288079
 H         0.527656         1.722227         1.988986
 H         0.295628         0.564913        -0.838726
 H        -0.588642        -0.958803        -0.152885
 H        -0.799683         0.629363         0.350837
 H         1.477884        -1.309891         2.605834
