19
Iteration:  1207charge 0 multiplicity 1
 C         2.421797        -1.672138        -0.435183
 C         2.531793        -0.553814         0.540507
 O         3.433575        -0.833409         1.694141
 C         3.552141         0.392449         0.918468
 C         2.705641         1.556558         1.514173
 C         1.418514         1.302284         1.566487
 C         1.096176        -0.090112         0.958534
 C         0.187915         0.066541        -0.247039
 O         0.543125        -1.099428         1.758374
 H         1.802194        -2.475915        -0.015463
 H         2.047649        -1.447612        -1.438920
 H         3.461454        -2.118715        -0.667716
 H         4.494404         0.584977         0.405901
 H         3.299348         2.464586         1.836096
 H         0.677158         2.073414         1.714858
 H         0.760791         0.058659        -1.231684
 H        -0.498154        -0.865142        -0.323876
 H        -0.498176         1.066248        -0.105605
 H         1.420391        -1.307280         2.294306
