19
Iteration:  1864charge 0 multiplicity 1
 C         2.737374        -1.568178        -0.713746
 C         2.565094        -0.643741         0.490152
 O         3.229115        -1.036589         1.648937
 C         3.479389         0.324135         1.095823
 C         2.735480         1.513920         1.613264
 C         1.430041         1.386869         1.402261
 C         1.069415        -0.051607         0.814080
 C         0.090928        -0.222768        -0.266490
 O         0.579713        -0.649095         2.076352
 H         1.759435        -2.102614        -0.907133
 H         2.978681        -0.894781        -1.616777
 H         3.569639        -2.281151        -0.632151
 H         4.540143         0.324903         0.811462
 H         3.242329         2.216899         2.279779
 H         0.686280         2.048034         1.817805
 H         0.301439         0.057083        -1.317834
 H        -0.210236        -1.309962        -0.201949
 H        -0.867939         0.291079         0.013884
 H         1.323274        -1.103830         2.426296
