19
Iteration:  4319charge 0 multiplicity 1
 C         2.541470        -1.740912        -0.561462
 C         2.515330        -0.559632         0.459215
 O         3.558577        -0.648270         1.506877
 C         3.457134         0.563981         0.780397
 C         2.656201         1.617993         1.392638
 C         1.319989         1.221139         1.511028
 C         1.108734        -0.211967         1.007439
 C         0.146421        -0.251300        -0.121255
 O         0.559770        -0.974328         2.145229
 H         1.543424        -1.814530        -1.059288
 H         3.371945        -1.422621        -1.268942
 H         2.764233        -2.712284         0.038461
 H         4.438862         0.817511         0.230828
 H         3.063669         2.470980         1.960914
 H         0.649670         1.854607         2.112242
 H         0.396057         0.345471        -1.010703
 H        -0.195249        -1.265571        -0.458383
 H        -0.703037         0.382540         0.234173
 H         1.399289        -1.228242         2.666574
