19
Iteration:  2008
 C         2.439327        -1.826894        -0.395647
 C         2.609384        -0.673107         0.558356
 O         3.466860        -0.702856         1.714602
 C         3.473201         0.483067         0.812696
 C         2.700287         1.589056         1.435531
 C         1.447498         1.208739         1.679204
 C         1.159819        -0.161513         1.003318
 C         0.245835         0.249511        -0.287288
 O         0.432422        -1.146628         1.730439
 H         1.734601        -2.511780         0.041954
 H         2.016118        -1.307974        -1.223473
 H         3.371183        -2.402106        -0.711377
 H         4.330863         0.703237         0.165774
 H         3.268220         2.461832         1.653903
 H         0.606499         1.741902         2.163757
 H         0.863271         0.920949        -0.869961
 H        -0.018045        -0.556757        -0.951208
 H        -0.813255         0.544629        -0.083332
 H         0.913550        -1.300050         2.517024
