19
Iteration:  1290charge 0 multiplicity 1
 C         2.766258        -1.547825        -0.661100
 C         2.533128        -0.661009         0.537418
 O         3.347038        -0.981472         1.701602
 C         3.540939         0.351726         0.988818
 C         2.747419         1.520610         1.424255
 C         1.434022         1.349238         1.424053
 C         1.063358        -0.125121         0.989290
 C         0.081125        -0.021532        -0.168449
 O         0.407983        -0.874099         1.955369
 H         2.098242        -2.418631        -0.499153
 H         2.386058        -1.051458        -1.609821
 H         3.781909        -1.790966        -0.723046
 H         4.562891         0.335527         0.525802
 H         3.353022         2.420672         1.699868
 H         0.644408         1.936140         1.881261
 H         0.455766         0.685383        -0.917782
 H         0.000674        -0.970802        -0.741826
 H        -0.799675         0.370975         0.179472
 H         0.996435        -1.093311         2.784012
