19
Iteration:  4714
 C         2.598627        -1.789455        -0.407446
 C         2.402816        -0.520919         0.456560
 O         3.475124        -0.743715         1.570078
 C         3.485331         0.466836         0.800384
 C         2.715039         1.650380         1.377850
 C         1.414094         1.294371         1.570678
 C         1.116086        -0.149912         1.002827
 C         0.069891        -0.130394        -0.160441
 O         0.597122        -1.051751         1.943903
 H         3.605784        -1.707278        -0.822577
 H         2.271708        -2.568717         0.272352
 H         1.806811        -1.772924        -1.142241
 H         4.277074         0.609916        -0.007557
 H         3.095038         2.661779         1.694770
 H         0.751616         2.121860         1.796424
 H         0.349855         0.859432        -0.611820
 H         0.106101        -1.177601        -0.517008
 H        -0.887581         0.147529         0.358661
 H         1.409721        -1.166164         2.562931
