19
Iteration:  2548
 C         2.803822        -1.770951        -0.486995
 C         2.552897        -0.617993         0.497346
 O         3.391286        -0.933877         1.655698
 C         3.446077         0.497751         0.879007
 C         2.711092         1.567810         1.519800
 C         1.422034         1.252826         1.514538
 C         1.086940        -0.117624         0.917774
 C         0.039905         0.113504        -0.249780
 O         0.447449        -0.922712         1.896131
 H         1.976586        -2.164422        -1.009073
 H         3.635346        -1.637144        -1.190495
 H         3.181426        -2.626491         0.186863
 H         4.391322         0.523577         0.301285
 H         3.077776         2.430696         2.110445
 H         0.505995         1.645168         2.082307
 H         0.658808         0.478248        -1.097464
 H        -0.589062        -0.705521        -0.594489
 H        -0.547723         0.970526         0.098691
 H         1.093543        -1.180807         2.675674
