19
Iteration:  4182charge 0 multiplicity 1
 C         2.634944        -1.621890        -0.602528
 C         2.476483        -0.592035         0.506065
 O         3.559286        -0.756832         1.510470
 C         3.377830         0.535286         0.730651
 C         2.621708         1.614483         1.393370
 C         1.351002         1.244182         1.596754
 C         1.091294        -0.060468         1.006997
 C         0.090673        -0.334675        -0.071157
 O         0.606135        -0.894375         2.069972
 H         2.755283        -1.582092        -1.762901
 H         3.656337        -2.110775        -0.373277
 H         1.938721        -2.480136        -0.502711
 H         4.340840         0.622802         0.157962
 H         3.058883         2.446317         1.883465
 H         0.583183         1.661175         2.228176
 H         0.331704         0.002475        -1.122550
 H        -0.035976        -1.490777         0.028730
 H        -0.880858         0.163588         0.298439
 H         1.441161        -1.085351         2.650034
