19
Iteration:  1408charge 0 multiplicity 1
 C         2.727229        -1.597706        -0.569480
 C         2.459034        -0.732841         0.641843
 O         3.521254        -0.792331         1.724064
 C         3.420200         0.354943         0.846569
 C         2.789524         1.515021         1.307920
 C         1.475643         1.151668         1.622976
 C         1.107101        -0.162530         1.056901
 C         0.250790         0.141940        -0.208727
 O         0.193696        -0.956874         1.837304
 H         2.314919        -2.608529        -0.469689
 H         2.223828        -1.111640        -1.454549
 H         3.704109        -1.606561        -0.825729
 H         4.274380         0.438015         0.081350
 H         3.298517         2.468355         1.301399
 H         0.795215         1.642554         2.276656
 H         0.733962         0.593164        -1.078327
 H        -0.157430        -0.794063        -0.652898
 H        -0.463958         0.804545         0.177060
 H         0.638305        -0.759994         2.790195
