19
Iteration:   790charge 0 multiplicity 1
 C         2.757731        -1.711103        -0.548112
 C         2.539969        -0.633726         0.446037
 O         3.252884        -0.958257         1.670868
 C         3.547256         0.349766         0.962430
 C         2.819696         1.485855         1.564893
 C         1.473804         1.318618         1.512310
 C         1.062370         0.022670         0.832762
 C        -0.073167        -0.128049        -0.260109
 O         0.533911        -0.683001         1.959541
 H         1.870859        -2.301042        -0.838497
 H         3.118689        -1.367144        -1.494280
 H         3.495989        -2.474994        -0.093689
 H         4.473498         0.327417         0.395277
 H         3.267539         2.209080         2.263304
 H         0.744321         1.842781         2.163559
 H        -0.307555        -1.161661        -0.469364
 H        -0.932423         0.468330         0.033144
 H         0.342214         0.290535        -1.174918
 H         1.362101        -0.880561         2.502782
