19
Iteration:  4481
 C         2.650426        -1.544185        -0.594520
 C         2.511187        -0.581301         0.526579
 O         3.500768        -0.772706         1.506205
 C         3.422076         0.443952         0.767448
 C         2.728791         1.615570         1.367364
 C         1.412786         1.233483         1.472257
 C         1.033696        -0.138465         0.995287
 C        -0.013929        -0.350024        -0.070585
 O         0.610606        -0.887974         2.198876
 H         2.430826        -1.191328        -1.574695
 H         3.695773        -1.829295        -0.640329
 H         2.166456        -2.496490        -0.574976
 H         4.192196         0.624699        -0.042847
 H         3.106916         2.590154         1.583828
 H         0.608663         1.777762         1.926019
 H         0.211989         0.240102        -0.966825
 H        -0.119927        -1.432585        -0.048044
 H        -0.896720         0.224685         0.224208
 H         1.446279        -0.948755         2.768364
