19
Iteration:  3289
 C         2.599713        -1.691643        -0.711396
 C         2.534939        -0.580503         0.431112
 O         3.292220        -0.715512         1.566642
 C         3.497740         0.477641         0.851847
 C         2.696548         1.618696         1.535898
 C         1.386135         1.391766         1.509282
 C         1.097209        -0.155356         1.007233
 C         0.006640        -0.300982        -0.020883
 O         0.770168        -1.009871         2.046857
 H         3.435872        -2.392808        -0.387687
 H         1.736789        -2.228910        -0.910909
 H         2.835475        -1.189356        -1.599372
 H         4.489810         0.589895         0.428748
 H         3.106533         2.624714         1.667351
 H         0.527593         2.058372         1.741956
 H         0.385728         0.121820        -1.030352
 H        -0.350234        -1.338249        -0.272891
 H        -0.926574         0.263370         0.037613
 H         1.498549        -0.883161         2.774501
