19
Iteration:  3985
 C         2.722812        -1.674788        -0.652956
 C         2.555693        -0.629127         0.429596
 O         3.376522        -0.680108         1.705418
 C         3.408017         0.468907         0.879426
 C         2.664643         1.599706         1.355030
 C         1.359263         1.254876         1.471072
 C         1.188457        -0.185070         0.990532
 C        -0.048838        -0.087653        -0.082646
 O         0.668775        -1.040296         2.067738
 H         3.062325        -2.741455        -0.295810
 H         1.827807        -1.811886        -1.236025
 H         3.303339        -1.345904        -1.496039
 H         4.322327         0.639793         0.335205
 H         3.115022         2.581049         1.494877
 H         0.543900         1.900845         1.707434
 H         0.260950        -0.208691        -1.104138
 H        -0.659404        -1.008359         0.231987
 H        -0.640222         0.854923         0.154770
 H         1.503917        -1.161510         2.660981
