19
Iteration:     6
 C         2.606429        -1.673998        -0.512014
 C         2.504765        -0.643985         0.539650
 O         3.346232        -0.843680         1.690331
 C         3.488582         0.352243         0.896883
 C         2.784575         1.586344         1.457504
 C         1.459001         1.295343         1.470504
 C         1.098374        -0.080006         0.913038
 C         0.088746        -0.017761        -0.199514
 O         0.522207        -0.976022         1.915536
 H         2.014271        -2.561600        -0.231644
 H         2.182464        -1.295728        -1.457444
 H         3.698357        -1.882689        -0.470946
 H         4.473192         0.631478         0.468437
 H         3.368475         2.494348         1.689801
 H         0.730052         2.095404         1.723885
 H        -0.024084        -1.098812        -0.436797
 H        -0.795161         0.511383         0.204144
 H         0.392699         0.611219        -1.053192
 H         1.257078        -1.079961         2.575236
