19
Iteration:  3744charge 0 multiplicity 1
 C         2.881949        -1.609088        -0.574499
 C         2.448984        -0.601790         0.433098
 O         3.443191        -0.645142         1.559364
 C         3.421654         0.441766         0.670314
 C         2.734313         1.571793         1.293024
 C         1.449136         1.271437         1.577033
 C         1.028394        -0.262023         1.086780
 C        -0.095140        -0.080851         0.011741
 O         0.532481        -1.094210         2.069132
 H         2.285410        -2.558685        -0.364957
 H         2.583809        -1.326324        -1.577039
 H         3.955739        -1.663093        -0.269721
 H         4.380247         0.421101         0.108807
 H         3.156907         2.495191         1.543354
 H         0.846267         2.074978         2.017856
 H         0.398131         0.617135        -0.726564
 H        -0.264723        -1.070830        -0.499565
 H        -1.024829         0.251748         0.520682
 H         1.198899        -1.055648         2.716416
