19
Iteration:  1572
 C         2.656787        -1.522322        -0.721301
 C         2.560774        -0.672883         0.564192
 O         3.284849        -1.065929         1.651556
 C         3.549950         0.330301         1.075475
 C         2.752989         1.450260         1.581640
 C         1.447333         1.303497         1.394226
 C         1.093151        -0.037374         0.862998
 C         0.147026        -0.156800        -0.312938
 O         0.423153        -0.673116         2.106328
 H         2.295073        -2.522065        -0.763327
 H         2.422314        -0.967960        -1.623369
 H         3.686590        -1.719745        -0.898660
 H         4.461198         0.455526         0.517756
 H         3.190041         2.334696         2.113314
 H         0.728042         2.163062         1.609035
 H         0.616988         0.361016        -1.114778
 H         0.064015        -1.192035        -0.663370
 H        -0.768528         0.267250        -0.050027
 H         1.032723        -0.563352         2.922791
