19
Iteration:  4857charge 0 multiplicity 1
 C         2.786703        -1.678948        -0.608355
 C         2.491718        -0.677314         0.483368
 O         3.400298        -0.862254         1.562022
 C         3.465781         0.397059         0.859301
 C         2.677741         1.624626         1.415804
 C         1.351665         1.339738         1.458125
 C         1.110963        -0.109970         0.945484
 C        -0.037264        -0.225095        -0.098101
 O         0.608771        -0.783616         2.149978
 H         3.638362        -2.315329        -0.322835
 H         1.979023        -2.292094        -0.849064
 H         3.149067        -1.226923        -1.505738
 H         4.362373         0.479871         0.277999
 H         3.015853         2.583545         1.776515
 H         0.434492         1.963929         1.567600
 H         0.184483         0.496027        -0.905583
 H         0.009599        -1.302675        -0.327590
 H        -0.921567         0.234003         0.391066
 H         1.395987        -1.190058         2.540266
