19
Iteration:  2964
 C         2.650210        -1.546479        -0.689947
 C         2.534331        -0.703660         0.605847
 O         3.315192        -0.873870         1.868994
 C         3.407254         0.489820         0.832617
 C         2.667758         1.691293         1.168545
 C         1.408937         1.281563         1.576783
 C         1.108408        -0.193929         0.998524
 C         0.071967        -0.115932        -0.165868
 O         0.663671        -1.029356         2.004191
 H         2.742117        -0.712538        -1.524204
 H         3.535788        -2.093418        -0.807770
 H         1.983930        -2.313413        -0.926616
 H         4.330676         0.512492         0.314873
 H         3.150495         2.528481         1.609359
 H         0.723977         2.047691         2.035278
 H         0.405722         0.737264        -0.793555
 H         0.084641        -0.841332        -0.985300
 H        -0.849063         0.171399         0.273509
 H         1.600308        -1.292649         2.427163
