19
Iteration:   600charge 0 multiplicity 1
 C         2.662800        -1.715262        -0.549129
 C         2.548851        -0.661923         0.506130
 O         3.218169        -0.840942         1.838446
 C         3.519859         0.375986         0.899444
 C         2.716989         1.555274         1.232000
 C         1.491573         1.249587         1.566316
 C         1.111862        -0.099437         1.012121
 C         0.193356         0.218102        -0.205771
 O         0.456558        -1.056675         1.894123
 H         1.888110        -2.538687        -0.463749
 H         2.431120        -1.151276        -1.546663
 H         3.657188        -2.158171        -0.576559
 H         4.570161         0.359349         0.712353
 H         3.205513         2.574932         1.187675
 H         0.868651         2.082052         1.957355
 H        -0.590222        -0.585691        -0.227260
 H        -0.270166         1.249418        -0.065959
 H         0.809400         0.084609        -1.160942
 H         1.242666        -1.495730         2.434528
