19
Iteration:  1136
 C         2.864286        -1.742264        -0.513357
 C         2.463959        -0.772849         0.605742
 O         3.470176        -0.895293         1.627674
 C         3.407178         0.335306         0.772812
 C         2.815626         1.608355         1.485853
 C         1.472740         1.341532         1.578914
 C         1.047769        -0.076851         0.931340
 C         0.030218         0.118800        -0.155115
 O         0.309189        -0.901662         1.889741
 H         2.395855        -2.748101        -0.540413
 H         2.690865        -1.262434        -1.485535
 H         3.964822        -1.899814        -0.493490
 H         4.323862         0.473981         0.248014
 H         3.458721         2.411067         1.911550
 H         0.682361         2.064722         1.918292
 H         0.089329         1.207605        -0.391353
 H         0.224723        -0.490191        -1.116777
 H        -0.967019        -0.118863         0.241250
 H         0.998061        -1.500710         2.454074
