19
Iteration:  1443charge 0 multiplicity 1
 C         2.509378        -1.776246        -0.492722
 C         2.487305        -0.619580         0.514244
 O         3.430380        -0.793300         1.646334
 C         3.457193         0.440167         0.874826
 C         2.774314         1.526382         1.535926
 C         1.469255         1.263289         1.640910
 C         1.085015        -0.122044         0.981128
 C         0.341924         0.149599        -0.309166
 O         0.383853        -1.030743         1.837886
 H         2.042472        -2.607196         0.085219
 H         1.906103        -1.646821        -1.399135
 H         3.565898        -2.078499        -0.665066
 H         4.284063         0.703568         0.233644
 H         3.316582         2.469302         1.586148
 H         0.676188         1.819960         2.121149
 H         0.858922         0.802001        -0.994838
 H         0.105708        -0.887811        -0.678706
 H        -0.668836         0.569312        -0.177786
 H         0.951603        -1.166890         2.697715
