19
Iteration:   171
 C         2.673537        -1.653159        -0.548631
 C         2.476606        -0.601027         0.471733
 O         3.175905        -0.965663         1.703608
 C         3.470421         0.275098         0.937846
 C         2.781566         1.568591         1.481977
 C         1.408473         1.462538         1.391828
 C         1.067621         0.020868         0.899924
 C         0.091309        -0.051704        -0.171046
 O         0.729604        -0.966523         1.998769
 H         1.986971        -2.519956        -0.326844
 H         2.574660        -1.231964        -1.606816
 H         3.675447        -2.053727        -0.486392
 H         4.416060         0.296181         0.422852
 H         3.214563         2.393282         1.987377
 H         0.562091         2.030866         1.749464
 H        -0.296855        -1.071424        -0.372491
 H        -0.823546         0.556325         0.023170
 H         0.555001         0.481324        -1.060293
 H         1.570684        -1.089649         2.369980
