19
Iteration:  3462
 C         2.810586        -1.700963        -0.552362
 C         2.468451        -0.641677         0.529970
 O         3.480821        -0.697027         1.572600
 C         3.391461         0.497242         0.608861
 C         2.684899         1.522692         1.412397
 C         1.397008         1.237954         1.608444
 C         1.077656        -0.141793         1.081315
 C         0.148987        -0.031485        -0.116195
 O         0.416345        -1.015704         2.057807
 H         1.892505        -1.963149        -1.296450
 H         3.701085        -1.388336        -1.109976
 H         3.104937        -2.757476        -0.257298
 H         4.254028         0.669467        -0.072595
 H         3.073049         2.386208         1.900095
 H         0.625696         1.860660         2.050838
 H         0.484675         0.658944        -0.976820
 H        -0.073124        -0.953168        -0.696893
 H        -0.775484         0.356733         0.311351
 H         1.166780        -1.234736         2.693683
