19
Iteration:  2175
 C         2.953281        -1.497118        -0.706044
 C         2.497617        -0.692077         0.455834
 O         3.353263        -0.958860         1.723569
 C         3.420865         0.276042         1.032568
 C         2.746406         1.464421         1.540287
 C         1.462880         1.287704         1.258899
 C         0.984107        -0.050510         0.965866
 C        -0.074308        -0.051384        -0.087366
 O         0.492450        -0.784571         1.982447
 H         2.385005        -2.386359        -1.074006
 H         3.220450        -0.924688        -1.604178
 H         3.845774        -1.855284        -0.272790
 H         4.400033         0.441804         0.518391
 H         3.209581         2.415193         1.834006
 H         0.813718         2.121488         1.562946
 H         0.150473         0.470664        -1.006746
 H        -0.259306        -1.125380        -0.261716
 H        -0.863229         0.297383         0.529091
 H         1.227747        -1.274046         2.459977
