19
Iteration:  4739
 C         2.817068        -1.801156        -0.623392
 C         2.535647        -0.686713         0.510905
 O         3.295398        -0.777039         1.667927
 C         3.456313         0.515731         0.708846
 C         2.707767         1.593699         1.368153
 C         1.417866         1.268720         1.499535
 C         1.126141        -0.071699         0.896373
 C        -0.057281        -0.086947        -0.111081
 O         0.579865        -0.921699         2.140069
 H         3.743807        -1.420974        -1.142244
 H         2.862220        -2.801954        -0.122460
 H         1.953418        -1.741813        -1.371697
 H         4.465211         0.572692         0.327887
 H         3.120270         2.458666         1.828843
 H         0.781496         1.802512         2.211041
 H         0.016396         0.829877        -0.656136
 H         0.092615        -1.085754        -0.567196
 H        -0.976649        -0.001408         0.465732
 H         1.451384        -1.075631         2.603215
