19
Iteration:  3092charge 0 multiplicity 1
 C         2.642791        -1.542332        -0.549658
 C         2.534453        -0.596027         0.603829
 O         3.424093        -0.827578         1.713037
 C         3.391405         0.417326         0.894507
 C         2.689043         1.640562         1.209153
 C         1.399214         1.251807         1.441573
 C         1.174479        -0.132425         1.004177
 C         0.109473        -0.024793        -0.071184
 O         0.540617        -1.118124         1.943855
 H         2.085919        -1.223639        -1.488304
 H         3.674066        -1.670212        -0.911127
 H         2.185674        -2.531936        -0.304656
 H         4.292209         0.473781         0.333541
 H         3.199067         2.584183         1.361354
 H         0.600283         1.808690         1.945462
 H         0.421723         0.662437        -0.870113
 H        -0.173615        -1.034819        -0.413885
 H        -0.790668         0.356926         0.432447
 H         1.342390        -1.335143         2.517859
