19
Iteration:  4514charge 0 multiplicity 1
 C         2.785521        -1.628206        -0.788457
 C         2.537517        -0.681585         0.462883
 O         3.471859        -0.766201         1.631783
 C         3.459244         0.468307         0.836296
 C         2.653404         1.588324         1.374833
 C         1.381571         1.269531         1.392592
 C         1.094967        -0.131274         0.985966
 C        -0.107108        -0.244228         0.053403
 O         0.587846        -0.882036         2.178491
 H         1.877585        -1.548952        -1.344628
 H         3.513128        -1.157552        -1.424803
 H         3.001256        -2.617097        -0.448865
 H         4.331817         0.626178         0.136316
 H         3.282051         2.452163         1.529083
 H         0.532605         1.842321         1.763732
 H         0.278571        -0.204452        -0.982483
 H        -0.468313        -1.271460         0.189165
 H        -0.809716         0.476838         0.560674
 H         1.407710        -0.781818         2.750226
