19
Iteration:  3007charge 0 multiplicity 1
 C         2.740990        -1.631362        -0.719079
 C         2.501855        -0.586825         0.419424
 O         3.375598        -0.868053         1.694524
 C         3.517552         0.450186         0.977046
 C         2.758760         1.655439         1.503835
 C         1.393970         1.360691         1.406286
 C         1.074566        -0.111251         0.971003
 C        -0.078306        -0.211550        -0.083086
 O         0.615651        -0.994799         2.004623
 H         2.529833        -1.179632        -1.759228
 H         3.792078        -1.832715        -0.685163
 H         2.232880        -2.546966        -0.462195
 H         4.442740         0.471817         0.444492
 H         3.138239         2.567032         1.936870
 H         0.525845         2.017539         1.651610
 H         0.226977         0.120875        -1.091736
 H        -0.545847        -1.187034        -0.211449
 H        -0.915211         0.411463         0.106823
 H         1.363267        -1.009183         2.680667
