19
Iteration:  1521charge 0 multiplicity 1
 C         2.765572        -1.545729        -0.609371
 C         2.534196        -0.664746         0.546008
 O         3.204863        -0.946106         1.799911
 C         3.510239         0.248634         0.939479
 C         2.844449         1.560185         1.378503
 C         1.520537         1.338053         1.461767
 C         1.101941        -0.027840         0.966120
 C         0.071986         0.037459        -0.208746
 O         0.420796        -0.965823         1.912476
 H         1.975850        -2.335862        -0.638816
 H         2.652093        -1.058598        -1.565574
 H         3.831799        -2.093063        -0.719529
 H         4.549080         0.215319         0.720758
 H         3.304438         2.564077         1.516876
 H         0.730368         2.068424         1.822643
 H         0.365518         0.699118        -1.050305
 H        -0.130166        -0.971426        -0.586180
 H        -0.855578         0.526310         0.300376
 H         0.933026        -1.248615         2.620172
