19
Iteration:  3663charge 0 multiplicity 1
 C         2.578405        -1.563147        -0.588813
 C         2.468460        -0.568870         0.502057
 O         3.443880        -0.810354         1.641002
 C         3.361334         0.476663         0.818676
 C         2.650373         1.627306         1.346829
 C         1.387723         1.285336         1.568800
 C         1.098056        -0.131749         0.983104
 C         0.080272        -0.235216        -0.136657
 O         0.740507        -1.007711         2.082729
 H         3.269695        -2.285543        -0.493008
 H         1.670946        -2.120188        -0.923508
 H         2.884845        -1.174508        -1.555003
 H         4.164637         0.625057         0.112115
 H         3.292296         2.470374         1.616169
 H         0.622959         1.931017         2.039842
 H         0.602017         0.227944        -0.960612
 H        -0.073893        -1.287449        -0.337140
 H        -0.847091         0.324515        -0.047013
 H         1.531907        -1.171819         2.547354
