19
Iteration:  1222charge 0 multiplicity 1
 C         2.625517        -1.680392        -0.495818
 C         2.501476        -0.612935         0.540279
 O         3.448792        -0.844824         1.599706
 C         3.534589         0.447581         0.945588
 C         2.765501         1.534519         1.533330
 C         1.469752         1.239743         1.579014
 C         1.111329        -0.089460         0.944663
 C         0.090134         0.044899        -0.293385
 O         0.409549        -0.985661         1.891904
 H         1.975555        -2.466656        -0.151818
 H         2.241537        -1.335874        -1.435595
 H         3.639500        -2.038110        -0.589332
 H         4.478752         0.590495         0.435255
 H         3.072565         2.537273         1.664508
 H         0.618845         1.813502         2.038175
 H         0.566100        -0.077313        -1.242418
 H        -0.611571        -0.723517        -0.324141
 H        -0.289888         0.964379        -0.251289
 H         0.958015        -1.451765         2.446089
