19
Iteration:  1369
 C         2.814508        -1.770593        -0.574146
 C         2.482547        -0.655920         0.451549
 O         3.369009        -0.890190         1.659205
 C         3.424889         0.404740         0.895926
 C         2.772158         1.535761         1.555215
 C         1.451634         1.306066         1.521241
 C         1.093870        -0.063408         0.887512
 C         0.104255         0.079693        -0.184576
 O         0.410869        -0.894943         1.927197
 H         2.141380        -2.626826        -0.316995
 H         2.632492        -1.349785        -1.557032
 H         3.865021        -2.287482        -0.509905
 H         4.372086         0.545347         0.470959
 H         3.209364         2.429919         1.977560
 H         0.758539         1.831058         2.155595
 H         0.658176         0.587137        -0.980793
 H        -0.485524        -0.809727        -0.472060
 H        -0.779844         0.696227         0.191335
 H         0.980271        -1.355947         2.520643
