19
Iteration:  3907
 C         2.669810        -1.505283        -0.579131
 C         2.571826        -0.621217         0.541254
 O         3.433418        -0.813622         1.630427
 C         3.494567         0.501037         0.790326
 C         2.720185         1.621754         1.308760
 C         1.382863         1.263003         1.443250
 C         1.098322        -0.164830         0.931872
 C         0.071789        -0.238498        -0.101694
 O         0.490229        -0.992195         2.173340
 H         2.988202        -2.589997        -0.305134
 H         1.692227        -1.799631        -0.923903
 H         3.327233        -1.197110        -1.421719
 H         4.515152         0.528820         0.511899
 H         3.106122         2.669885         1.404255
 H         0.540048         1.849784         1.913193
 H         0.151484         0.575677        -0.823297
 H         0.029599        -1.140029        -0.787706
 H        -0.951411        -0.054333         0.398468
 H         1.273900        -1.088697         2.661621
