19
Iteration:  2209
 C         2.815015        -1.627780        -0.674326
 C         2.551672        -0.673307         0.461968
 O         3.358448        -0.891664         1.711450
 C         3.503535         0.423368         0.927929
 C         2.744665         1.537996         1.517603
 C         1.426257         1.210034         1.495322
 C         1.055461        -0.120317         0.937790
 C         0.008963        -0.044010        -0.242631
 O         0.470249        -0.860651         1.990611
 H         1.850358        -2.179800        -0.842199
 H         3.184736        -1.055369        -1.537958
 H         3.551000        -2.286586        -0.356825
 H         4.559378         0.603107         0.556034
 H         3.143367         2.400486         2.018493
 H         0.764072         1.777291         2.198681
 H         0.304738         0.173516        -1.279874
 H        -0.573538        -0.964052        -0.132244
 H        -0.720809         0.752009        -0.135764
 H         0.970030        -0.528292         2.693027
