19
Iteration:  1765charge 0 multiplicity 1
 C         2.578454        -1.803019        -0.450389
 C         2.485138        -0.695399         0.627273
 O         3.331872        -0.766672         1.779037
 C         3.472886         0.417578         0.837777
 C         2.744991         1.627715         1.391112
 C         1.485257         1.181426         1.581661
 C         1.088078        -0.115620         0.955994
 C         0.289412         0.256593        -0.231592
 O         0.505731        -1.095922         1.728961
 H         2.142390        -2.779158        -0.061070
 H         1.796060        -1.389673        -1.207336
 H         3.401354        -1.916762        -1.063102
 H         4.378364         0.461451         0.275607
 H         2.978034         2.606188         1.767682
 H         0.694278         1.675587         2.190405
 H         0.864349         0.687096        -1.075975
 H        -0.250038        -0.686021        -0.585867
 H        -0.463289         0.994289        -0.002610
 H         0.889932        -1.155971         2.590095
