19
Iteration:  4314charge 0 multiplicity 1
 C         2.576169        -1.738706        -0.565897
 C         2.546878        -0.544971         0.484857
 O         3.536690        -0.672584         1.517915
 C         3.466496         0.553275         0.764282
 C         2.627044         1.634944         1.392818
 C         1.380307         1.217862         1.534589
 C         1.094518        -0.199322         1.018097
 C         0.067330        -0.272489        -0.157502
 O         0.575158        -0.953419         2.116869
 H         1.597198        -1.754718        -0.988172
 H         3.363313        -1.621693        -1.280283
 H         2.878371        -2.609863        -0.062576
 H         4.350453         0.787176         0.276001
 H         3.024638         2.482463         1.930347
 H         0.631545         1.724498         2.144487
 H         0.507351         0.385978        -0.943363
 H        -0.374687        -1.248780        -0.304872
 H        -0.726115         0.259622         0.379683
 H         1.419504        -1.057311         2.530947
