19
Iteration:   958
 C         2.560059        -1.736242        -0.649900
 C         2.533562        -0.717797         0.536931
 O         3.430799        -0.781183         1.707604
 C         3.438925         0.427611         0.846834
 C         2.724977         1.588619         1.534691
 C         1.448737         1.262951         1.650142
 C         1.133948        -0.110110         1.009601
 C         0.301611         0.040508        -0.274514
 O         0.371070        -0.971658         1.884278
 H         1.902719        -2.562433        -0.396047
 H         2.012025        -1.297260        -1.504268
 H         3.481862        -2.124123        -1.018814
 H         4.418775         0.608761         0.318446
 H         3.329196         2.421938         1.866303
 H         0.621531         1.929173         2.003611
 H         0.974644         0.329037        -1.020539
 H        -0.240582        -0.840386        -0.462183
 H        -0.394239         0.855296        -0.191574
 H         0.921284        -1.209851         2.593097
