19
Iteration:   920charge 0 multiplicity 1
 C         2.646096        -1.781622        -0.345490
 C         2.556402        -0.503587         0.452691
 O         3.393278        -0.896207         1.680331
 C         3.549874         0.386174         0.870043
 C         2.768975         1.435944         1.449529
 C         1.403206         1.257533         1.638932
 C         1.025955        -0.015307         0.870569
 C         0.025200         0.192075        -0.258075
 O         0.554357        -1.021289         1.770307
 H         1.954434        -2.386717         0.302546
 H         2.343356        -1.670907        -1.385297
 H         3.724883        -2.218164        -0.294885
 H         4.424410         0.644503         0.335343
 H         3.325950         2.106109         2.087138
 H         0.684601         1.829806         2.157834
 H        -0.095366         1.325500        -0.550995
 H         0.185680        -0.394979        -1.246405
 H        -0.981010        -0.208658         0.108969
 H         1.125865        -0.872656         2.624871
