19
Iteration:  2347
 C         2.681881        -1.739278        -0.501083
 C         2.505208        -0.757483         0.581820
 O         3.395670        -0.822850         1.652710
 C         3.416032         0.420048         0.894144
 C         2.743344         1.596425         1.490569
 C         1.452856         1.301476         1.541999
 C         1.113419        -0.097843         0.953508
 C         0.252014         0.122628        -0.253095
 O         0.345450        -1.004994         1.847213
 H         2.758294        -2.807121        -0.176463
 H         1.978513        -1.740592        -1.364747
 H         3.632063        -1.588019        -1.002702
 H         4.379691         0.667546         0.388965
 H         3.233519         2.482999         1.843820
 H         0.569842         1.762001         2.038896
 H         0.809803         0.706675        -0.969234
 H        -0.128410        -0.907966        -0.502951
 H        -0.527662         0.800869         0.135874
 H         1.012583        -1.153289         2.611897
