19
Iteration:   254
 C         2.524672        -1.477940        -0.628057
 C         2.446910        -0.660626         0.603524
 O         3.318828        -0.993724         1.689499
 C         3.532047         0.276137         0.987343
 C         2.868435         1.566913         1.339976
 C         1.518364         1.374200         1.445483
 C         1.094816        -0.045009         1.009381
 C         0.166334        -0.213321        -0.256155
 O         0.440608        -0.802792         2.025350
 H         1.807637        -2.281775        -0.612986
 H         2.383945        -0.933446        -1.558049
 H         3.513186        -1.867146        -0.534014
 H         4.550734         0.319117         0.498619
 H         3.401239         2.469180         1.494640
 H         0.800273         2.087109         1.814548
 H         0.119626        -1.221670        -0.616399
 H        -0.799248         0.143027         0.057725
 H         0.525498         0.354050        -1.100484
 H         1.281600        -1.037360         2.607245
