19
Iteration:  4324charge 0 multiplicity 1
 C         2.526217        -1.720783        -0.541282
 C         2.484996        -0.612590         0.443467
 O         3.573785        -0.633678         1.506813
 C         3.461961         0.575115         0.762999
 C         2.638329         1.596885         1.418424
 C         1.310152         1.245415         1.489594
 C         1.133123        -0.201943         1.006821
 C         0.184852        -0.209885        -0.091248
 O         0.567536        -0.999468         2.164604
 H         1.649439        -1.898900        -1.147366
 H         3.261152        -1.437208        -1.244073
 H         2.622301        -2.616522        -0.032587
 H         4.309458         0.802016         0.184147
 H         3.102963         2.470257         1.883673
 H         0.586520         1.867654         2.014368
 H         0.448250         0.238961        -1.071400
 H         0.005066        -1.182268        -0.524576
 H        -0.758375         0.334703         0.054164
 H         1.204719        -1.375590         2.775482
