19
Iteration:   214
 C         2.897285        -1.688482        -0.705234
 C         2.509304        -0.686256         0.394909
 O         3.315919        -0.871785         1.745099
 C         3.553443         0.254068         0.976956
 C         2.787740         1.440611         1.469282
 C         1.442382         1.269245         1.334486
 C         1.087159        -0.126792         0.860070
 C        -0.141441        -0.004751        -0.079313
 O         0.480603        -0.646474         2.079385
 H         2.079304        -2.356522        -1.147973
 H         3.213770        -1.076000        -1.648447
 H         3.744646        -2.315505        -0.436146
 H         4.553597         0.356691         0.576169
 H         3.253148         2.254304         2.041326
 H         0.727677         1.877940         1.902456
 H        -0.325904        -0.972505        -0.619506
 H        -1.062042         0.031826         0.569353
 H        -0.124356         0.951215        -0.716142
 H         1.123116        -0.815124         2.772505
