19
Iteration:  3472
 C         2.886521        -1.704717        -0.590767
 C         2.477693        -0.699477         0.499913
 O         3.484928        -0.656728         1.606781
 C         3.277901         0.473022         0.638408
 C         2.704527         1.533237         1.426581
 C         1.433147         1.171785         1.634120
 C         1.123355        -0.225633         1.024382
 C         0.091974        -0.037615        -0.088363
 O         0.394333        -0.895646         2.025703
 H         2.080688        -1.923510        -1.420322
 H         3.644920        -1.221868        -1.187537
 H         3.256572        -2.593692         0.021535
 H         4.045753         0.585687        -0.140638
 H         3.271131         2.409365         1.636212
 H         0.687489         1.673997         2.254382
 H         0.537749         0.747371        -0.797903
 H        -0.324411        -0.981515        -0.472700
 H        -0.731012         0.465624         0.384926
 H         1.077977        -1.314694         2.570532
