19
Iteration:  2067
 C         2.824502        -1.772643        -0.591240
 C         2.547525        -0.695192         0.488505
 O         3.381575        -0.719120         1.722653
 C         3.458863         0.427904         0.802424
 C         2.762840         1.522471         1.420090
 C         1.485113         1.121676         1.675926
 C         1.013020        -0.110774         0.982085
 C         0.082655         0.160968        -0.193618
 O         0.345625        -0.955398         1.865286
 H         2.163840        -2.702747        -0.486996
 H         2.843929        -1.429578        -1.667829
 H         3.822974        -2.089872        -0.377014
 H         4.432312         0.632073         0.315682
 H         3.293506         2.430685         1.803107
 H         0.735281         1.591925         2.306078
 H         0.707348         0.147237        -1.137932
 H        -0.569791        -0.741352        -0.263818
 H        -0.407738         1.099484        -0.204588
 H         0.801143        -0.865900         2.793460
