19
Iteration:  4163
 C         2.769538        -1.701058        -0.563416
 C         2.509130        -0.642743         0.470572
 O         3.471569        -0.667684         1.545912
 C         3.402571         0.525071         0.688697
 C         2.636579         1.581631         1.425152
 C         1.362740         1.249919         1.536026
 C         1.110107        -0.215788         1.007984
 C        -0.048962        -0.160469        -0.040127
 O         0.646509        -0.992572         2.098858
 H         2.368319        -1.220644        -1.463454
 H         3.834566        -1.918362        -0.914519
 H         2.156112        -2.642499        -0.371694
 H         4.224444         0.809376         0.069317
 H         3.073632         2.556423         1.710229
 H         0.511341         1.722916         1.985269
 H         0.498885        -0.048708        -0.999732
 H        -0.534817        -1.103383        -0.228409
 H        -0.653151         0.667086         0.259039
 H         1.296404        -0.763940         2.838423
