19
Iteration:  2125charge 0 multiplicity 1
 C         2.549033        -1.515960        -0.699895
 C         2.497496        -0.603216         0.461910
 O         3.221259        -0.938225         1.753335
 C         3.560403         0.264568         1.104962
 C         2.759069         1.564632         1.578297
 C         1.386404         1.385693         1.384356
 C         1.126691        -0.040222         0.846091
 C         0.158267        -0.200533        -0.297426
 O         0.627420        -0.844378         2.031927
 H         2.197147        -2.530393        -0.376092
 H         1.999959        -1.226486        -1.646429
 H         3.659572        -1.684887        -0.974769
 H         4.625159         0.421839         0.756946
 H         3.334171         2.351652         2.021018
 H         0.576221         2.080488         1.700769
 H         0.324838         0.606165        -1.070778
 H         0.201082        -1.229052        -0.708152
 H        -0.816035        -0.231213         0.292649
 H         1.426773        -1.160256         2.406047
