19
Iteration:  1359charge 0 multiplicity 1
 C         2.715982        -1.746545        -0.544871
 C         2.496211        -0.624795         0.408450
 O         3.289894        -0.901622         1.653365
 C         3.476564         0.368399         0.926887
 C         2.764991         1.571344         1.610740
 C         1.446609         1.302516         1.565388
 C         1.118049        -0.104006         0.910060
 C         0.059611         0.031903        -0.189849
 O         0.529718        -0.876117         1.862867
 H         1.969175        -2.521248        -0.274068
 H         2.627607        -1.629823        -1.616136
 H         3.819383        -2.021323        -0.260669
 H         4.382528         0.498651         0.409332
 H         3.280199         2.429866         2.040462
 H         0.605645         1.962434         1.824128
 H         0.434423         0.538755        -1.098163
 H        -0.110727        -0.955208        -0.593154
 H        -0.773696         0.730867         0.164198
 H         1.271298        -1.043290         2.399437
