19
Iteration:  4152charge 0 multiplicity 1
 C         2.740173        -1.682650        -0.636886
 C         2.537551        -0.635145         0.494817
 O         3.465423        -0.612126         1.610819
 C         3.419059         0.560020         0.722126
 C         2.688915         1.616903         1.375993
 C         1.404904         1.155601         1.423899
 C         1.005483        -0.234800         1.019268
 C        -0.065434        -0.080787        -0.063394
 O         0.661930        -1.102060         2.164024
 H         2.133973        -1.611775        -1.504091
 H         3.875142        -1.771542        -0.841531
 H         2.467357        -2.744389        -0.242497
 H         4.379256         0.658852         0.271664
 H         3.080139         2.601930         1.643298
 H         0.680478         1.756918         1.939370
 H         0.392505         0.313963        -0.987268
 H        -0.760413        -0.894421        -0.155355
 H        -0.752949         0.734840         0.087514
 H         1.264709        -0.875750         2.861568
