19
Iteration:  2572
 C         2.795345        -1.762845        -0.514574
 C         2.508815        -0.736656         0.529219
 O         3.342953        -0.757919         1.740472
 C         3.474286         0.349194         0.868681
 C         2.718188         1.549710         1.380556
 C         1.417297         1.311869         1.607381
 C         1.097473        -0.071236         0.986159
 C         0.135445         0.208625        -0.149744
 O         0.434174        -1.082526         1.782644
 H         2.021676        -1.913691        -1.274237
 H         3.799112        -1.530428        -0.947429
 H         2.987809        -2.773836        -0.066253
 H         4.435297         0.457329         0.225563
 H         2.996126         2.588646         1.306912
 H         0.534772         1.915723         1.903547
 H         0.500942         0.915712        -0.875464
 H        -0.135169        -0.743887        -0.614610
 H        -0.729893         0.677960         0.358197
 H         0.949331        -1.202455         2.621153
