19
Iteration:   705charge 0 multiplicity 1
 C         2.649204        -1.763896        -0.539820
 C         2.421426        -0.704579         0.585901
 O         3.380385        -0.752228         1.710099
 C         3.440428         0.289771         0.877853
 C         2.854567         1.512272         1.510298
 C         1.550038         1.288532         1.452824
 C         1.102359        -0.077489         0.948368
 C         0.191805         0.071400        -0.279335
 O         0.327891        -0.884594         1.924324
 H         2.383635        -2.761900        -0.294329
 H         2.324086        -1.479867        -1.508523
 H         3.726504        -1.633457        -0.574743
 H         4.354440         0.431616         0.241701
 H         3.544237         2.276561         1.962755
 H         0.691643         1.864306         1.912892
 H         0.572631        -0.480015        -1.083994
 H        -0.786564        -0.294765        -0.086445
 H         0.095432         1.087185        -0.574898
 H         0.796402        -1.078472         2.682496
