19
Iteration:  4230charge 0 multiplicity 1
 C         2.658619        -1.580375        -0.610468
 C         2.543464        -0.639272         0.453140
 O         3.454249        -0.746145         1.704853
 C         3.417538         0.446916         0.827400
 C         2.595323         1.611443         1.290374
 C         1.347753         1.262960         1.401346
 C         1.078578        -0.177069         0.988094
 C        -0.024767        -0.226246         0.013147
 O         0.760024        -0.950736         2.079187
 H         2.540357        -1.042233        -1.550504
 H         3.707213        -1.908411        -0.868832
 H         1.952929        -2.463898        -0.742432
 H         4.262538         0.540929         0.198344
 H         3.091184         2.547954         1.585197
 H         0.590577         1.784607         2.002512
 H         0.077262         0.602981        -0.738166
 H         0.060868        -1.158117        -0.519767
 H        -0.985248        -0.106114         0.487059
 H         1.442955        -0.894418         2.749037
