19
Iteration:   628
 C         2.507577        -1.718172        -0.371352
 C         2.484851        -0.642788         0.650106
 O         3.346559        -0.783424         1.826134
 C         3.486630         0.359506         0.814578
 C         2.805837         1.588576         1.302085
 C         1.516531         1.297576         1.577799
 C         1.117781        -0.073883         0.967266
 C         0.214474         0.175187        -0.229488
 O         0.462227        -1.162729         1.671383
 H         1.954429        -2.595432        -0.142698
 H         2.005288        -1.220708        -1.130279
 H         3.539000        -1.989385        -0.680425
 H         4.465530         0.293135         0.233492
 H         3.284629         2.552102         1.504161
 H         0.920398         2.102269         2.051291
 H        -0.373672        -0.714002        -0.321907
 H        -0.432503         0.976608         0.051764
 H         0.695265         0.350269        -1.155110
 H         0.956045        -1.322405         2.593939
