19
Iteration:  3748
 C         2.855573        -1.620299        -0.589607
 C         2.455192        -0.647314         0.442136
 O         3.431141        -0.628844         1.563591
 C         3.430664         0.430697         0.651108
 C         2.708703         1.592502         1.299158
 C         1.442686         1.308337         1.594916
 C         1.048999        -0.276851         1.068965
 C        -0.035224        -0.105686         0.028574
 O         0.514372        -1.091194         2.074632
 H         2.218539        -2.597443        -0.443594
 H         2.777928        -1.135995        -1.669184
 H         3.897831        -1.644617        -0.319787
 H         4.321813         0.307710         0.100584
 H         3.196901         2.589448         1.467239
 H         0.757717         2.027164         2.095819
 H         0.389955         0.635679        -0.613494
 H        -0.262098        -1.003211        -0.622737
 H        -0.976473         0.309419         0.537957
 H         1.227977        -1.015085         2.808763
