19
Iteration:  2590charge 0 multiplicity 1
 C         2.682144        -1.677801        -0.485146
 C         2.513868        -0.616835         0.563912
 O         3.314532        -0.676085         1.841595
 C         3.493663         0.382218         0.836294
 C         2.770952         1.621743         1.242356
 C         1.566401         1.155552         1.582366
 C         1.071482        -0.212738         0.982386
 C         0.135339         0.168912        -0.177762
 O         0.379307        -1.133610         1.802987
 H         2.076562        -1.467325        -1.327985
 H         3.669093        -1.764511        -0.919356
 H         2.410977        -2.711216        -0.122291
 H         4.472890         0.519949         0.447226
 H         3.315888         2.515259         1.610811
 H         0.857823         1.828760         2.155086
 H         0.575291         0.999182        -0.787080
 H         0.050545        -0.578465        -0.983866
 H        -0.891980         0.299637         0.158536
 H         1.108278        -1.409283         2.423778
