19
Iteration:   715charge 0 multiplicity 1
 C         2.649239        -1.642602        -0.545433
 C         2.445786        -0.699992         0.612303
 O         3.339481        -0.846449         1.826502
 C         3.529582         0.333642         0.872929
 C         2.873193         1.528637         1.396734
 C         1.520903         1.283255         1.487664
 C         1.101729        -0.113376         0.942406
 C         0.145857         0.052303        -0.247270
 O         0.352248        -0.896782         1.858596
 H         2.257444        -2.624880        -0.333847
 H         2.188913        -1.324933        -1.442183
 H         3.715052        -1.873848        -0.824156
 H         4.481545         0.109990         0.353817
 H         3.331671         2.527160         1.643799
 H         0.740300         2.050721         1.829876
 H         0.430073        -0.472706        -1.108295
 H        -0.761924        -0.376208         0.083250
 H        -0.009362         1.056325        -0.518393
 H         0.918631        -0.951069         2.626651
