19
Iteration:  3924charge 0 multiplicity 1
 C         2.631612        -1.689048        -0.679646
 C         2.519545        -0.606616         0.466209
 O         3.371269        -0.650235         1.663860
 C         3.509505         0.483307         0.827583
 C         2.724153         1.603286         1.421098
 C         1.423027         1.240131         1.459445
 C         1.134987        -0.177733         0.989947
 C         0.043210        -0.267861        -0.109083
 O         0.574044        -0.906241         2.082088
 H         3.120228        -2.542604        -0.363011
 H         1.593799        -1.930163        -1.049006
 H         3.328871        -1.266638        -1.423845
 H         4.419077         0.671930         0.168946
 H         3.070099         2.352130         2.117942
 H         0.692980         1.847339         2.021287
 H         0.153275         0.427473        -0.988456
 H        -0.029170        -1.299026        -0.380076
 H        -0.960934        -0.150319         0.215434
 H         1.218354        -1.090327         2.738694
