19
Iteration:  2675charge 0 multiplicity 1
 C         2.735885        -1.680552        -0.659403
 C         2.483321        -0.614634         0.422875
 O         3.393938        -0.768114         1.778321
 C         3.465915         0.364450         0.891462
 C         2.712978         1.483995         1.531603
 C         1.413543         1.202595         1.570741
 C         1.102574        -0.073855         0.903944
 C         0.094029        -0.061117        -0.265164
 O         0.503740        -0.836661         1.959689
 H         3.689882        -1.385384        -1.287027
 H         3.012349        -2.592243        -0.108485
 H         1.868627        -1.885182        -1.324472
 H         4.294017         0.656951         0.308022
 H         3.164344         2.279339         2.127899
 H         0.478990         1.644803         1.998106
 H         0.456837         0.098600        -1.332211
 H        -0.404087        -0.979338         0.077578
 H        -0.729175         0.635835        -0.080681
 H         1.266305        -1.108936         2.560854
