19
Iteration:  1829
 C         2.845424        -1.634901        -0.596814
 C         2.495038        -0.638440         0.463594
 O         3.292433        -0.961861         1.698639
 C         3.462557         0.314826         0.943814
 C         2.746263         1.432874         1.612212
 C         1.427564         1.276816         1.377157
 C         1.127696        -0.070061         0.850436
 C         0.019405        -0.000465        -0.222673
 O         0.517180        -0.765952         2.009885
 H         2.042573        -2.464647        -0.510269
 H         2.606896        -1.080642        -1.598170
 H         3.798392        -2.064457        -0.524507
 H         4.408522         0.500464         0.477905
 H         3.221003         2.140265         2.249570
 H         0.685670         2.019331         1.706284
 H         0.072854         0.813985        -1.001960
 H         0.085307        -1.002181        -0.798785
 H        -0.891339         0.029271         0.356212
 H         1.087381        -0.286105         2.673998
