19
Iteration:  4335charge 0 multiplicity 1
 C         2.538161        -1.709741        -0.562051
 C         2.496809        -0.638643         0.543143
 O         3.583499        -0.639908         1.494331
 C         3.377133         0.512517         0.670472
 C         2.626014         1.606759         1.475349
 C         1.331387         1.274184         1.489155
 C         1.157094        -0.150814         1.110790
 C         0.181158        -0.146314        -0.155659
 O         0.565976        -1.039142         2.138031
 H         1.662611        -1.692044        -1.187993
 H         3.428906        -1.761150        -1.127040
 H         2.646285        -2.631010        -0.098267
 H         4.075473         0.805096        -0.050817
 H         3.019242         2.601988         1.601764
 H         0.400647         1.743857         1.742164
 H         0.879565         0.381263        -0.797618
 H         0.095674        -1.207622        -0.305692
 H        -0.852782         0.153639         0.008270
 H         1.326255        -1.364718         2.744804
