19
Iteration:  1240
 C         2.809042        -1.708000        -0.646723
 C         2.558212        -0.704944         0.479846
 O         3.407329        -0.819694         1.681022
 C         3.458334         0.411935         0.792806
 C         2.740666         1.548658         1.516305
 C         1.430675         1.193480         1.629672
 C         1.055153        -0.122172         0.933178
 C         0.138782         0.032936        -0.208813
 O         0.322383        -0.853322         1.962536
 H         2.307849        -2.675040        -0.501703
 H         2.588230        -1.315476        -1.622006
 H         3.958345        -1.902894        -0.525945
 H         4.354678         0.501617         0.206454
 H         3.291252         2.170424         2.261657
 H         0.742947         1.770465         2.207898
 H         0.659344         0.052593        -1.201868
 H        -0.727484        -0.674385        -0.022576
 H        -0.479067         1.114719        -0.228811
 H         0.892068        -0.963911         2.671607
