19
Iteration:  1760
 C         2.544708        -1.826389        -0.411785
 C         2.508343        -0.684867         0.595068
 O         3.388139        -0.793173         1.757675
 C         3.403777         0.434423         0.835472
 C         2.702047         1.603656         1.411509
 C         1.467807         1.167197         1.615344
 C         1.145728        -0.055466         0.936221
 C         0.262107         0.280234        -0.278249
 O         0.496518        -1.123621         1.747636
 H         2.256468        -2.776109         0.005253
 H         1.885631        -1.431007        -1.149646
 H         3.598448        -1.978717        -0.949965
 H         4.342726         0.506485         0.242131
 H         3.208952         2.545224         1.791499
 H         0.691461         1.721427         2.116843
 H         0.872958         0.641001        -1.128923
 H        -0.248173        -0.593117        -0.639924
 H        -0.449929         1.114404        -0.033025
 H         0.833187        -0.982230         2.714588
