19
Iteration:  3004
 C         2.730747        -1.610624        -0.716435
 C         2.484243        -0.577285         0.434629
 O         3.346217        -0.852297         1.694013
 C         3.545095         0.439613         1.005294
 C         2.741835         1.649218         1.458570
 C         1.398710         1.344554         1.394042
 C         1.080358        -0.134585         0.968313
 C        -0.053567        -0.207574        -0.076471
 O         0.636024        -1.013302         2.011444
 H         2.539218        -1.140871        -1.655398
 H         3.859383        -1.818145        -0.707698
 H         2.090661        -2.547358        -0.531649
 H         4.477171         0.559193         0.422628
 H         3.187108         2.538646         1.886178
 H         0.499722         1.982806         1.532344
 H         0.349635         0.261028        -0.970191
 H        -0.635241        -1.127612        -0.212926
 H        -0.922899         0.467260         0.157958
 H         1.274133        -1.035859         2.678504
