19
Iteration:  1541charge 0 multiplicity 1
 C         2.670476        -1.457894        -0.773488
 C         2.478558        -0.779759         0.654949
 O         3.286672        -0.915143         1.850259
 C         3.478566         0.249415         1.045310
 C         2.814198         1.458484         1.344206
 C         1.486257         1.273085         1.413160
 C         1.081849        -0.118517         0.924722
 C         0.165514        -0.026942        -0.241865
 O         0.448087        -0.769923         2.008230
 H         2.136736        -2.324117        -1.096617
 H         2.446000        -0.714471        -1.485366
 H         3.796392        -1.545182        -0.713680
 H         4.330565         0.239693         0.418369
 H         3.284658         2.418696         1.683051
 H         0.770101         2.078347         1.813434
 H         0.627196         0.673442        -0.913529
 H         0.074158        -0.983975        -0.767583
 H        -0.819275         0.418664        -0.087965
 H         1.045566        -1.347997         2.523401
