19
Iteration:  2697charge 0 multiplicity 1
 C         2.813791        -1.514658        -0.665810
 C         2.515154        -0.644362         0.571154
 O         3.259892        -0.855322         1.737856
 C         3.490786         0.368124         0.932294
 C         2.807152         1.578714         1.374689
 C         1.491433         1.347078         1.478180
 C         1.035113        -0.137758         0.977466
 C         0.021429        -0.129911        -0.177167
 O         0.474501        -1.000075         1.974392
 H         3.886602        -1.410308        -1.117145
 H         2.701367        -2.602488        -0.485990
 H         2.115045        -1.318064        -1.528269
 H         4.480530         0.479263         0.594454
 H         3.272972         2.520166         1.645178
 H         0.674284         2.006734         1.891071
 H         0.681721         0.169980        -1.042230
 H        -0.623008        -1.030597        -0.197696
 H        -0.644853         0.753520        -0.145189
 H         1.159937        -1.161023         2.605309
