19
Iteration:  1906
 C         2.757698        -1.410700        -0.801698
 C         2.498504        -0.736012         0.597206
 O         3.153499        -0.917026         1.819334
 C         3.580872         0.238124         1.129731
 C         2.829267         1.583537         1.374023
 C         1.520769         1.368555         1.341118
 C         1.145061        -0.083966         0.907389
 C        -0.021742        -0.099898        -0.259168
 O         0.513971        -0.976542         2.061592
 H         1.955593        -2.146033        -0.687287
 H         2.547751        -0.644260        -1.588610
 H         3.692933        -1.779365        -1.012757
 H         4.595216         0.283044         0.748198
 H         3.292037         2.474272         1.809867
 H         0.704259         2.005396         1.627919
 H         0.426494         0.126563        -1.251703
 H        -0.450679        -1.136415        -0.322581
 H        -0.724804         0.709230        -0.246134
 H         1.112610        -0.788926         2.874596
