19
Iteration:  1566charge 0 multiplicity 1
 C         2.658876        -1.480080        -0.736240
 C         2.562791        -0.668977         0.574254
 O         3.283734        -1.046857         1.708871
 C         3.552962         0.303055         1.028692
 C         2.763962         1.451062         1.556754
 C         1.434269         1.317866         1.381599
 C         1.079307        -0.129396         0.861868
 C         0.223346        -0.131436        -0.312896
 O         0.394407        -0.677260         2.148795
 H         2.092223        -2.469087        -0.807520
 H         2.232482        -0.848674        -1.556414
 H         3.821196        -1.556596        -0.837823
 H         4.464839         0.327561         0.408051
 H         3.248892         2.270770         2.018538
 H         0.620433         1.985886         1.525182
 H         0.571955         0.513739        -1.183282
 H         0.048481        -1.140637        -0.698949
 H        -0.819583         0.331981        -0.052066
 H         1.117159        -0.647234         2.725310
