19
Iteration:  4965
 C         2.566343        -1.907325        -0.319206
 C         2.533804        -0.620739         0.499165
 O         3.684874        -0.640150         1.497747
 C         3.420257         0.501848         0.624870
 C         2.619580         1.530633         1.502849
 C         1.308634         1.227155         1.566760
 C         1.083217        -0.086466         0.962309
 C         0.196245         0.013881        -0.205875
 O         0.462000        -0.936634         2.007426
 H         3.506729        -1.981843        -0.988768
 H         2.614043        -2.841102         0.356999
 H         1.566375        -1.943382        -0.798572
 H         4.179320         0.791648        -0.065136
 H         3.062188         2.234924         2.275182
 H         0.525267         1.702493         2.204638
 H         0.864427         0.319470        -1.029192
 H        -0.338781        -0.934116        -0.460848
 H        -0.731326         0.612110         0.046347
 H         1.232736        -1.494142         2.296776
