19
Iteration:  1498charge 0 multiplicity 1
 C         2.676866        -1.802428        -0.449842
 C         2.468963        -0.597119         0.446655
 O         3.222942        -0.831128         1.667979
 C         3.602519         0.310855         0.967196
 C         2.821706         1.577022         1.553444
 C         1.471673         1.295222         1.513047
 C         1.087939        -0.058006         0.852109
 C         0.027992         0.142590        -0.180298
 O         0.558843        -0.999001         1.777893
 H         1.941610        -2.610556        -0.411393
 H         2.754833        -1.568650        -1.494974
 H         3.727575        -2.272290        -0.298368
 H         4.591040         0.428868         0.590648
 H         3.343349         2.424205         2.093425
 H         0.573908         1.933229         1.816257
 H         0.297595         0.732876        -1.058699
 H        -0.346345        -0.861350        -0.486879
 H        -0.728108         0.650116         0.464603
 H         1.001827        -0.861190         2.712838
