19
Iteration:  4919
 C         2.537554        -1.791704        -0.438254
 C         2.525020        -0.612672         0.551007
 O         3.406812        -0.624243         1.720024
 C         3.483151         0.455212         0.636125
 C         2.638217         1.618136         1.253394
 C         1.388196         1.219836         1.602649
 C         1.164033        -0.105431         1.020644
 C         0.168739         0.060616        -0.114760
 O         0.603291        -1.139511         1.890609
 H         3.634746        -1.913114        -0.738293
 H         2.264309        -2.748493         0.225296
 H         1.701674        -1.824028        -1.184148
 H         4.412795         0.522964         0.052025
 H         3.112320         2.537925         1.462873
 H         0.828573         1.719975         2.411130
 H         0.591598         0.602492        -1.016763
 H        -0.229188        -0.881694        -0.518074
 H        -0.843141         0.398097         0.183225
 H         1.071192        -1.184761         2.716890
