19
Iteration:  4606charge 0 multiplicity 1
 C         2.658901        -1.714701        -0.508406
 C         2.560458        -0.626980         0.562324
 O         3.526258        -0.652931         1.567869
 C         3.528520         0.526787         0.684453
 C         2.692757         1.591448         1.326392
 C         1.426986         1.169658         1.564323
 C         1.067589        -0.233680         0.969510
 C        -0.005783        -0.090275        -0.080955
 O         0.467943        -0.955591         2.048499
 H         2.997700        -2.735879        -0.183264
 H         1.667120        -2.047076        -0.899942
 H         3.374233        -1.522836        -1.350175
 H         4.468721         0.651372         0.118987
 H         3.048031         2.530725         1.727611
 H         0.585282         1.611120         2.047594
 H         0.337070         0.634395        -0.850357
 H        -0.294817        -1.008389        -0.599806
 H        -0.827595         0.275507         0.606289
 H         1.149390        -0.981424         2.804744
