19
Iteration:  1647
 C         2.698181        -1.659144        -0.617347
 C         2.497947        -0.696149         0.549306
 O         3.252768        -0.902109         1.772066
 C         3.458773         0.336551         0.976966
 C         2.739255         1.551465         1.376771
 C         1.443049         1.272314         1.482411
 C         1.098056        -0.079514         0.985868
 C         0.153016         0.196921        -0.222153
 O         0.570275        -1.010311         1.889335
 H         2.120973        -2.605726        -0.462027
 H         2.564394        -1.279302        -1.680145
 H         3.698191        -2.020725        -0.645971
 H         4.521699         0.317415         0.815292
 H         3.167493         2.563382         1.599939
 H         0.574128         2.002454         1.621673
 H         0.574023         0.782070        -1.044895
 H        -0.159068        -0.835739        -0.585260
 H        -0.746169         0.606527         0.209236
 H         1.013493        -0.875996         2.709988
