19
Iteration:   777charge 0 multiplicity 1
 C         2.754062        -1.713689        -0.580198
 C         2.436977        -0.643554         0.507243
 O         3.183476        -0.872557         1.721611
 C         3.489315         0.285473         0.918171
 C         2.816930         1.425834         1.600096
 C         1.493567         1.404013         1.331617
 C         1.054534        -0.016099         0.851061
 C         0.017508        -0.017158        -0.205803
 O         0.635203        -0.837856         1.958140
 H         1.802251        -2.268945        -0.772481
 H         3.223664        -1.263849        -1.471745
 H         3.543374        -2.428452        -0.113297
 H         4.570481         0.444939         0.693255
 H         3.342850         2.165884         2.244508
 H         0.801025         2.191462         1.774663
 H        -0.128441        -1.090594        -0.570776
 H        -0.973861         0.175112         0.305201
 H         0.119054         0.729274        -1.043680
 H         1.400475        -0.852107         2.507321
