19
Iteration:  2949charge 0 multiplicity 1
 C         2.713521        -1.592837        -0.625034
 C         2.503849        -0.653207         0.553363
 O         3.357763        -0.781422         1.662640
 C         3.415039         0.414024         0.802384
 C         2.707624         1.661237         1.339757
 C         1.411227         1.328395         1.565016
 C         1.087246        -0.167012         1.021786
 C         0.131233        -0.099553        -0.186117
 O         0.548279        -1.054200         2.032777
 H         2.590854        -1.108300        -1.567160
 H         3.732089        -2.125273        -0.481359
 H         1.834202        -2.333346        -0.671036
 H         4.450384         0.578221         0.407627
 H         3.217793         2.638156         1.502660
 H         0.657229         1.824224         2.192880
 H         0.268786         0.817727        -0.741251
 H         0.365522        -1.004998        -0.757956
 H        -0.916085        -0.181677         0.214369
 H         1.223382        -1.295295         2.622057
