19
Iteration:  4397charge 0 multiplicity 1
 C         2.749687        -1.823587        -0.489439
 C         2.526690        -0.692300         0.471354
 O         3.449081        -0.560493         1.596907
 C         3.388969         0.527592         0.654991
 C         2.678755         1.708585         1.277937
 C         1.421174         1.284325         1.543553
 C         1.161312        -0.187847         1.033981
 C        -0.096757        -0.020690         0.096912
 O         0.621104        -1.175823         1.940275
 H         2.985179        -1.452410        -1.532419
 H         3.724094        -2.310565        -0.134188
 H         1.814530        -2.465032        -0.447326
 H         4.348627         0.588164         0.096762
 H         3.303958         2.551401         1.482085
 H         0.579793         1.688902         2.072162
 H        -0.047249         0.556427        -0.814458
 H        -0.589233        -0.912336        -0.353546
 H        -0.906646         0.466702         0.762708
 H         1.272756        -1.346454         2.693049
