19
Iteration:  2585charge 0 multiplicity 1
 C         2.740193        -1.733255        -0.513947
 C         2.472254        -0.583998         0.564327
 O         3.324408        -0.688072         1.834945
 C         3.487407         0.371342         0.856087
 C         2.756120         1.598721         1.280665
 C         1.514095         1.172888         1.590098
 C         1.106657        -0.192341         1.011345
 C         0.122573         0.176176        -0.176079
 O         0.399195        -1.112323         1.785687
 H         2.002918        -1.551305        -1.408071
 H         3.728263        -1.671524        -1.043443
 H         2.536829        -2.672365        -0.042687
 H         4.468189         0.366949         0.289262
 H         3.347390         2.507886         1.377722
 H         0.874033         1.874913         2.037805
 H         0.616785         0.970166        -0.734812
 H        -0.079179        -0.584072        -0.963680
 H        -0.904549         0.404615         0.178908
 H         0.993923        -1.423666         2.532660
