19
Iteration:  2627
 C         2.556089        -1.768212        -0.507122
 C         2.493214        -0.628631         0.453078
 O         3.497590        -0.768455         1.710160
 C         3.403009         0.429115         0.912954
 C         2.710761         1.552891         1.511231
 C         1.411545         1.276963         1.604558
 C         1.086527        -0.081671         0.923411
 C         0.198933         0.033734        -0.243775
 O         0.508058        -1.024497         1.827999
 H         2.854676        -1.463926        -1.577151
 H         3.373387        -2.362915         0.006865
 H         1.567003        -2.211223        -0.285697
 H         4.372571         0.634057         0.320887
 H         3.208352         2.483849         1.773371
 H         0.620644         1.981440         1.742391
 H         0.553558         0.924009        -0.719729
 H         0.274378        -0.915028        -0.788535
 H        -0.883077         0.111132        -0.020439
 H         1.208301        -1.133417         2.582294
