19
Iteration:  4133charge 0 multiplicity 1
 C         2.761237        -1.656172        -0.528120
 C         2.508276        -0.599242         0.479665
 O         3.428566        -0.660445         1.675282
 C         3.477521         0.457608         0.762838
 C         2.625152         1.626455         1.161178
 C         1.347169         1.233349         1.535843
 C         1.142329        -0.195364         1.000809
 C        -0.065872        -0.024224        -0.019428
 O         0.671503        -1.152722         2.071281
 H         1.920911        -1.722443        -1.172268
 H         3.512464        -1.493944        -1.242487
 H         2.790505        -2.714387        -0.277890
 H         4.365536         0.558791         0.194199
 H         2.949316         2.661954         1.442557
 H         0.480316         1.746516         1.977771
 H         0.309176         0.507119        -0.917211
 H        -0.567339        -0.963174        -0.151709
 H        -0.777752         0.688581         0.376299
 H         1.433708        -1.236455         2.613553
