19
Iteration:  2034charge 0 multiplicity 1
 C         2.660961        -1.732131        -0.428169
 C         2.456602        -0.657705         0.599323
 O         3.473304        -0.748293         1.681364
 C         3.409033         0.419091         0.817499
 C         2.691518         1.586659         1.299118
 C         1.482960         1.189871         1.638034
 C         1.073891        -0.145015         1.073746
 C         0.271322         0.282216        -0.148480
 O         0.363914        -1.142390         1.756295
 H         1.938815        -2.612258        -0.232635
 H         2.577656        -1.392358        -1.501612
 H         3.647459        -2.087675        -0.169984
 H         4.222791         0.491421         0.099021
 H         3.241021         2.540215         1.427560
 H         0.696686         1.752464         2.105047
 H         1.053108         0.403433        -0.932874
 H        -0.460521        -0.467149        -0.566692
 H        -0.390545         1.126113        -0.069236
 H         1.078001        -1.689679         2.126567
