19
Iteration:  3659charge 0 multiplicity 1
 C         2.612035        -1.553633        -0.616594
 C         2.462595        -0.596116         0.485983
 O         3.452108        -0.806920         1.668569
 C         3.372620         0.445699         0.776704
 C         2.644726         1.643223         1.356749
 C         1.368117         1.278391         1.570018
 C         1.106422        -0.141005         0.967009
 C         0.095510        -0.198327        -0.091237
 O         0.698812        -0.990596         2.087082
 H         3.466790        -2.352087        -0.482746
 H         1.772656        -2.182594        -0.963496
 H         2.762521        -1.078931        -1.602820
 H         4.177284         0.622625         0.081526
 H         3.214327         2.523020         1.574546
 H         0.660450         1.927442         2.080893
 H         0.526399         0.142312        -1.040873
 H        -0.020339        -1.301056        -0.209715
 H        -0.890087         0.333242        -0.002904
 H         1.533856        -1.276690         2.598667
