19
Iteration:  3175charge 0 multiplicity 1
 C         2.561288        -1.763804        -0.593311
 C         2.488031        -0.653661         0.450861
 O         3.607419        -0.601368         1.585872
 C         3.411638         0.472175         0.806537
 C         2.673218         1.594198         1.511555
 C         1.331582         1.279028         1.593058
 C         1.065151        -0.195691         0.975097
 C         0.111285        -0.093930        -0.266242
 O         0.582122        -1.004506         2.083057
 H         3.158810        -1.640358        -1.446187
 H         2.997819        -2.638294         0.002106
 H         1.539273        -2.159262        -0.799553
 H         4.313125         0.641373         0.161638
 H         3.261209         2.368081         1.979392
 H         0.587766         1.922923         2.125095
 H         0.524893         0.752378        -0.784851
 H        -0.086442        -0.975269        -0.895423
 H        -0.813843         0.280930         0.237256
 H         1.344521        -1.378333         2.485513
