19
Iteration:  1220
 C         2.581991        -1.672621        -0.485403
 C         2.503903        -0.602447         0.540780
 O         3.449892        -0.841001         1.603823
 C         3.546780         0.442898         0.957385
 C         2.770277         1.527094         1.529731
 C         1.451062         1.240396         1.581213
 C         1.105188        -0.087140         0.950549
 C         0.102179         0.020655        -0.290991
 O         0.439486        -0.995208         1.863704
 H         1.957208        -2.455826        -0.115965
 H         2.199040        -1.348789        -1.380055
 H         3.661009        -2.053831        -0.554279
 H         4.454843         0.584886         0.428296
 H         3.054882         2.575249         1.639233
 H         0.660692         1.910222         1.961033
 H         0.640538         0.022105        -1.248319
 H        -0.682510        -0.694932        -0.316834
 H        -0.331072         1.067053        -0.258130
 H         0.982068        -1.522684         2.464101
