19
Iteration:  4294charge 0 multiplicity 1
 C         2.751048        -1.725851        -0.577059
 C         2.536477        -0.585172         0.488333
 O         3.438916        -0.709694         1.621372
 C         3.403083         0.512613         0.707331
 C         2.666172         1.599247         1.396160
 C         1.394019         1.237236         1.566573
 C         1.119874        -0.126644         0.917746
 C        -0.130186        -0.199898        -0.037449
 O         0.689576        -0.986085         2.026316
 H         1.798073        -1.798441        -1.095842
 H         3.640261        -1.253537        -1.114298
 H         3.117134        -2.679763        -0.031016
 H         4.302418         0.666298         0.204578
 H         3.137858         2.512893         1.660814
 H         0.673916         1.823311         2.121667
 H        -0.015489         0.174973        -1.111138
 H        -0.312878        -1.296229        -0.004154
 H        -1.062603         0.310214         0.279733
 H         1.346243        -0.730915         2.681510
