19
Iteration:  2507charge 0 multiplicity 1
 C         2.582798        -1.617354        -0.672252
 C         2.506285        -0.659811         0.535298
 O         3.314299        -0.898567         1.751103
 C         3.486989         0.395105         0.914208
 C         2.741681         1.600414         1.640408
 C         1.416677         1.365505         1.503232
 C         1.110611        -0.081989         0.884314
 C         0.211286        -0.201756        -0.287201
 O         0.522049        -0.875249         1.886248
 H         1.612821        -1.719990        -1.029583
 H         3.354142        -1.227665        -1.352888
 H         2.876242        -2.540663        -0.124499
 H         4.436848         0.523042         0.286234
 H         3.335233         2.360829         2.160911
 H         0.756378         1.934019         2.241619
 H         0.698829         0.070811        -1.171831
 H        -0.148339        -1.225817        -0.235057
 H        -0.548092         0.581164        -0.273589
 H         1.124585        -0.843769         2.582896
