19
Iteration:   378
 C         2.452236        -1.770455        -0.421316
 C         2.426170        -0.657052         0.627293
 O         3.457603        -0.820188         1.682980
 C         3.460113         0.368478         0.811983
 C         2.696105         1.573685         1.294418
 C         1.427340         1.208450         1.600876
 C         1.125882        -0.129106         1.056443
 C         0.412209         0.248934        -0.328120
 O         0.445522        -1.020402         1.942862
 H         1.603724        -2.500256        -0.287363
 H         2.274093        -1.256810        -1.376937
 H         3.434485        -2.329591        -0.515283
 H         4.288823         0.331513         0.146764
 H         3.032516         2.589146         1.281498
 H         0.604222         1.811486         1.895869
 H         0.437292        -0.682503        -0.962339
 H        -0.667725         0.534883        -0.293253
 H         0.994011         1.103826        -0.736026
 H         1.107769        -1.140063         2.641519
