19
Iteration:  4411
 C         2.745156        -1.805515        -0.442413
 C         2.488977        -0.564493         0.508853
 O         3.493756        -0.699708         1.602494
 C         3.447094         0.500437         0.691231
 C         2.614006         1.653976         1.234945
 C         1.391822         1.284332         1.498794
 C         1.050567        -0.119058         1.001738
 C        -0.130494        -0.013726         0.079725
 O         0.725193        -1.171080         1.942997
 H         2.973511        -1.493090        -1.483086
 H         3.514848        -2.513565        -0.047279
 H         1.797653        -2.379606        -0.552874
 H         4.237832         0.730200         0.044964
 H         2.858344         2.667684         1.579578
 H         0.768064         1.949452         2.120632
 H         0.152827         0.782723        -0.668752
 H        -0.080268        -1.105235        -0.221349
 H        -0.988555         0.442736         0.687545
 H         1.543915        -1.248759         2.429195
