19
Iteration:  2105charge 0 multiplicity 1
 C         2.648793        -1.626049        -0.600213
 C         2.509910        -0.669030         0.565640
 O         3.376969        -0.990987         1.679061
 C         3.447435         0.466852         0.956753
 C         2.749540         1.497254         1.658320
 C         1.419834         1.358791         1.384535
 C         1.129193        -0.038896         0.912878
 C         0.085052        -0.112235        -0.225233
 O         0.533571        -0.834164         1.896316
 H         2.085336        -2.535586        -0.404109
 H         2.106050        -1.239332        -1.476275
 H         3.739295        -1.890444        -0.856302
 H         4.410386         0.672500         0.472034
 H         3.220122         2.333296         2.144498
 H         0.704366         2.117324         1.712749
 H         0.608195         0.359168        -1.087007
 H        -0.022729        -1.169148        -0.532066
 H        -0.973753         0.311677        -0.041645
 H         1.236940        -1.145096         2.531308
