19
Iteration:  1739
 C         2.615423        -1.893893        -0.321229
 C         2.479623        -0.610643         0.501218
 O         3.520296        -0.757192         1.539355
 C         3.532405         0.433813         0.803696
 C         2.697193         1.483207         1.593098
 C         1.386882         1.251746         1.704129
 C         1.013123        -0.142511         0.960502
 C         0.263152         0.268262        -0.349630
 O         0.401415        -1.053827         1.777315
 H         2.106141        -2.579418         0.364472
 H         2.162887        -1.942896        -1.317570
 H         3.736341        -2.293019        -0.402632
 H         4.467188         0.694568         0.235722
 H         3.070641         2.497233         1.928942
 H         0.647679         1.841028         2.234718
 H         0.907298         0.606121        -1.202907
 H        -0.396001        -0.510069        -0.749081
 H        -0.370439         1.163143        -0.059883
 H         0.628476        -0.853473         2.688779
