19
Iteration:  1734
 C         2.655138        -1.942661        -0.293601
 C         2.478407        -0.580790         0.470741
 O         3.534484        -0.751186         1.494986
 C         3.526100         0.463507         0.815050
 C         2.700223         1.503701         1.640698
 C         1.416342         1.176101         1.652292
 C         1.009759        -0.062855         0.972733
 C         0.254790         0.241488        -0.318841
 O         0.343242        -1.042358         1.773189
 H         2.090142        -2.715691         0.267687
 H         2.159786        -1.759698        -1.267730
 H         3.626521        -2.323128        -0.311791
 H         4.381303         0.644337         0.181696
 H         3.052237         2.418687         2.029351
 H         0.759480         1.813733         2.268488
 H         0.982578         0.508747        -1.068844
 H        -0.340254        -0.560300        -0.778801
 H        -0.358163         1.097374        -0.121126
 H         0.673715        -0.879620         2.727938
