19
Iteration:  1984charge 0 multiplicity 1
 C         2.482650        -1.850620        -0.369457
 C         2.494693        -0.610444         0.474038
 O         3.401884        -0.760327         1.627853
 C         3.540377         0.456839         0.799155
 C         2.731827         1.552562         1.580579
 C         1.435725         1.197993         1.662070
 C         1.178077        -0.050668         0.920787
 C         0.231714         0.110603        -0.286739
 O         0.468649        -0.992676         1.762989
 H         2.121288        -2.714803         0.151894
 H         2.011834        -1.648225        -1.341117
 H         3.536556        -2.003056        -0.525952
 H         4.463576         0.708370         0.199835
 H         3.159358         2.389352         2.175759
 H         0.640571         1.558270         2.328965
 H         0.329488         0.991472        -0.922151
 H         0.167592        -0.752701        -0.950900
 H        -0.767596        -0.135546         0.089834
 H         0.831771        -0.884866         2.663903
