19
Iteration:  4667charge 0 multiplicity 1
 C         2.554362        -1.825856        -0.497848
 C         2.475284        -0.650795         0.507586
 O         3.539159        -0.558226         1.636485
 C         3.414701         0.525575         0.672801
 C         2.624846         1.697961         1.281749
 C         1.479254         1.079865         1.665467
 C         1.146019        -0.217542         1.040698
 C         0.169701         0.031865        -0.128819
 O         0.496461        -1.098655         1.973629
 H         3.373729        -2.243200        -0.031315
 H         1.659670        -2.324375        -0.229912
 H         2.574943        -1.668367        -1.531050
 H         4.230999         0.693342         0.024972
 H         3.100429         2.650849         1.355541
 H         0.621716         1.534550         2.182472
 H         0.681219         0.334094        -1.049844
 H        -0.478942        -0.837177        -0.118685
 H        -0.396608         0.956461         0.029188
 H         1.258171        -1.145230         2.603662
