19
Iteration:  2784charge 0 multiplicity 1
 C         2.740669        -1.727610        -0.516874
 C         2.376869        -0.629940         0.421747
 O         3.417288        -0.851379         1.574742
 C         3.491446         0.366268         0.891287
 C         2.699900         1.535696         1.571728
 C         1.393205         1.298261         1.571268
 C         1.078744         0.074562         0.917544
 C         0.056748        -0.156278        -0.195390
 O         0.578478        -0.869464         1.935185
 H         2.929338        -2.694028         0.037865
 H         2.054791        -1.796005        -1.390580
 H         3.729949        -1.315997        -0.917712
 H         4.437019         0.663615         0.460555
 H         3.188532         2.281027         2.178920
 H         0.553198         1.899608         1.930426
 H        -0.102224         0.644537        -0.969963
 H         0.448996        -0.957834        -0.820799
 H        -0.945092        -0.313776         0.207158
 H         1.280253        -0.873490         2.683406
