19
Iteration:  3599
 C         2.846079        -1.672803        -0.597935
 C         2.513609        -0.709456         0.534288
 O         3.481601        -0.768569         1.520220
 C         3.456853         0.458678         0.803696
 C         2.673151         1.519606         1.393980
 C         1.368258         1.318468         1.545917
 C         1.063539        -0.147404         0.979400
 C        -0.113794        -0.080887         0.002110
 O         0.591192        -0.967981         1.992320
 H         3.369716        -1.114858        -1.242898
 H         3.358427        -2.530216        -0.144999
 H         1.882585        -1.861686        -1.098299
 H         4.268973         0.775272         0.151801
 H         3.177823         2.413076         1.737328
 H         0.620586         2.017338         1.976553
 H         0.172595         0.620180        -0.804857
 H        -0.245352        -1.056233        -0.475806
 H        -1.038165         0.225641         0.508107
 H         1.141002        -0.810717         2.749106
