19
Iteration:  3792
 C         2.515113        -1.653618        -0.554871
 C         2.517782        -0.599179         0.538348
 O         3.533363        -0.681639         1.585405
 C         3.514846         0.513099         0.774899
 C         2.588714         1.607642         1.328135
 C         1.327339         1.224225         1.549744
 C         1.141310        -0.173401         1.032334
 C         0.105056        -0.165283        -0.190118
 O         0.636313        -1.064371         2.111710
 H         1.433243        -2.052312        -0.660971
 H         2.615636        -1.191320        -1.632883
 H         3.288342        -2.370994        -0.268655
 H         4.317329         0.868619         0.123688
 H         3.095627         2.624889         1.438280
 H         0.503156         1.636804         2.114653
 H         0.553735         0.597035        -0.816079
 H        -0.153557        -1.101115        -0.730292
 H        -0.759998         0.298241         0.368217
 H         1.439061        -1.283634         2.670730
