19
Iteration:  3435charge 0 multiplicity 1
 C         2.465389        -1.697900        -0.503855
 C         2.495963        -0.533394         0.485439
 O         3.548526        -0.761649         1.596228
 C         3.456651         0.518875         0.865695
 C         2.649845         1.664986         1.397258
 C         1.406123         1.239802         1.612423
 C         1.131011        -0.189168         1.007088
 C         0.122541        -0.108064        -0.217365
 O         0.636829        -1.099897         1.950402
 H         1.754735        -1.575232        -1.214256
 H         3.462177        -2.004355        -0.864913
 H         2.158800        -2.603250         0.016729
 H         4.309570         0.824601         0.254310
 H         3.024063         2.733831         1.457023
 H         0.602696         1.863314         2.036686
 H         0.410560         0.591691        -0.951867
 H        -0.093936        -0.999129        -0.812507
 H        -0.818885         0.324496         0.210368
 H         1.067010        -0.983744         2.859412
