19
Iteration:   816
 C         2.664302        -1.662441        -0.671294
 C         2.541166        -0.707392         0.499982
 O         3.383665        -0.883383         1.629527
 C         3.530284         0.370214         0.961293
 C         2.828205         1.466774         1.582874
 C         1.487350         1.256894         1.495042
 C         1.115599        -0.068113         0.920117
 C         0.140264        -0.157320        -0.247666
 O         0.286924        -0.645392         2.030895
 H         1.831812        -2.334188        -0.785138
 H         2.768714        -1.164569        -1.674999
 H         3.502620        -2.230657        -0.479128
 H         4.470297         0.464362         0.415605
 H         3.151805         2.384268         2.050636
 H         0.784522         1.961027         1.908718
 H        -0.656252        -0.823423         0.006864
 H        -0.228660         0.841845        -0.454456
 H         0.606643        -0.474830        -1.165850
 H         0.909244        -1.008851         2.629545
