19
Iteration:  3401
 C         2.566902        -1.750285        -0.537537
 C         2.474364        -0.582434         0.469347
 O         3.371281        -0.620563         1.676212
 C         3.475282         0.524583         0.800892
 C         2.714834         1.603703         1.439817
 C         1.422286         1.267914         1.493582
 C         1.105811        -0.154845         0.944992
 C        -0.040670        -0.095539        -0.102976
 O         0.758755        -1.124008         1.931434
 H         2.867007        -1.426529        -1.518655
 H         3.327261        -2.503920        -0.303065
 H         1.604391        -2.133238        -0.541635
 H         4.465101         0.767433         0.318003
 H         3.248474         2.423162         1.984437
 H         0.831349         1.728769         2.279968
 H         0.383950         0.423910        -0.923728
 H        -0.546798        -1.049087        -0.291752
 H        -0.836975         0.567296         0.332166
 H         1.514975        -1.504776         2.337848
