19
Iteration:  4487charge 0 multiplicity 1
 C         2.684491        -1.538247        -0.606401
 C         2.468115        -0.587705         0.556360
 O         3.521395        -0.808363         1.505701
 C         3.462945         0.486741         0.746028
 C         2.737455         1.617290         1.348857
 C         1.405553         1.232656         1.431020
 C         1.044662        -0.169267         1.040444
 C        -0.093072        -0.336257        -0.050303
 O         0.587926        -0.881651         2.189509
 H         2.328063        -1.157976        -1.616733
 H         3.806720        -1.510531        -0.707864
 H         2.273498        -2.585830        -0.480485
 H         4.305267         0.659278         0.100824
 H         3.227862         2.544052         1.732781
 H         0.568936         1.844699         1.830397
 H         0.459757         0.027252        -0.984555
 H        -0.146542        -1.465987        -0.132671
 H        -0.932496         0.333399         0.288533
 H         1.399661        -0.975744         2.755244
