19
Iteration:  2850charge 0 multiplicity 1
 C         2.635305        -1.685958        -0.599213
 C         2.504345        -0.683274         0.615592
 O         3.374732        -0.742372         1.733718
 C         3.387314         0.497448         0.767818
 C         2.655075         1.667881         1.223323
 C         1.458864         1.274756         1.715013
 C         1.074917        -0.116248         1.082552
 C         0.153122         0.052000        -0.190395
 O         0.597951        -1.209524         1.869078
 H         1.682924        -2.068799        -0.968261
 H         3.121833        -1.055134        -1.406421
 H         3.405760        -2.502622        -0.323783
 H         4.457580         0.436030         0.584888
 H         3.197233         2.616983         1.334177
 H         0.603284         1.818144         2.006769
 H         0.895813         0.074059        -0.993184
 H        -0.391376        -0.855915        -0.377069
 H        -0.368720         1.011891        -0.082798
 H         0.963130        -1.196518         2.706318
