19
Iteration:  2810charge 0 multiplicity 1
 C         2.716577        -1.676431        -0.523570
 C         2.585655        -0.687377         0.500809
 O         3.415603        -0.771905         1.659553
 C         3.487756         0.508034         0.833417
 C         2.735413         1.583024         1.471605
 C         1.441407         1.265227         1.487100
 C         1.115014        -0.202365         0.955614
 C        -0.018039        -0.040664        -0.171652
 O         0.449672        -0.992080         1.958371
 H         2.132903        -2.527632        -0.274655
 H         2.339206        -1.169594        -1.440634
 H         3.765266        -1.961196        -0.690857
 H         4.493695         0.817099         0.393806
 H         3.247429         2.423134         1.981728
 H         0.674415         1.898146         1.922197
 H         0.375599         0.751026        -0.790794
 H        -0.226419        -0.865155        -0.884510
 H        -1.000154         0.390238         0.142317
 H         1.148690        -1.396413         2.613166
