19
Iteration:   244
 C         2.663447        -1.504076        -0.580086
 C         2.446092        -0.653621         0.624470
 O         3.337940        -0.995983         1.677584
 C         3.517403         0.263955         0.926539
 C         2.893171         1.526450         1.409694
 C         1.562271         1.433306         1.414008
 C         1.086515        -0.066475         0.952640
 C         0.051167        -0.176787        -0.229386
 O         0.404937        -0.799947         2.031206
 H         1.860349        -2.195393        -0.861029
 H         2.757563        -0.665996        -1.314991
 H         3.574361        -2.030042        -0.708750
 H         4.413349         0.248996         0.237719
 H         3.356084         2.466714         1.545760
 H         0.780234         2.129192         1.640156
 H         0.135505        -1.227069        -0.494159
 H        -0.961074        -0.131633         0.178696
 H         0.090063         0.447719        -1.137062
 H         1.024779        -1.049262         2.865444
