19
Iteration:  1534
 C         2.711577        -1.502819        -0.736787
 C         2.455809        -0.761188         0.623902
 O         3.255619        -0.929220         1.856579
 C         3.557954         0.243567         1.008410
 C         2.816555         1.528825         1.330361
 C         1.466392         1.325655         1.471337
 C         1.094921        -0.113636         0.938323
 C         0.152968         0.015365        -0.235103
 O         0.406391        -0.841148         1.983295
 H         2.083448        -2.411808        -1.000394
 H         2.516080        -0.628452        -1.410103
 H         3.872099        -1.749672        -0.724319
 H         4.495330         0.218786         0.400152
 H         3.402597         2.388402         1.585385
 H         0.713904         2.041334         1.730415
 H         0.488792         0.714736        -1.070632
 H        -0.065163        -0.995818        -0.608451
 H        -0.925107         0.342885         0.100786
 H         1.302575        -1.296436         2.267577
