19
Iteration:  3077
 C         2.630321        -1.632732        -0.656198
 C         2.489032        -0.713947         0.526935
 O         3.453662        -0.890576         1.673881
 C         3.504888         0.439874         0.852779
 C         2.620381         1.656855         1.389594
 C         1.323903         1.337826         1.523299
 C         1.079212        -0.127359         1.043928
 C         0.149308        -0.100061        -0.144430
 O         0.607313        -0.956541         2.003991
 H         2.004459        -1.358432        -1.448690
 H         3.708785        -1.545704        -0.983123
 H         2.471893        -2.679886        -0.316735
 H         4.494876         0.585401         0.345772
 H         2.969687         2.684773         1.516033
 H         0.497386         2.051178         1.699050
 H         0.506035         0.641561        -0.903524
 H         0.124869        -1.136965        -0.583867
 H        -0.923220         0.165014         0.176587
 H         1.167926        -1.050505         2.726219
