19
Iteration:  5000charge 0 multiplicity 1
 C         2.737501        -1.760831        -0.474353
 C         2.465792        -0.683845         0.526067
 O         3.468076        -0.673201         1.567608
 C         3.448505         0.472383         0.650297
 C         2.749701         1.657760         1.344685
 C         1.545917         1.207086         1.639691
 C         1.110379        -0.121744         1.049664
 C         0.141284        -0.105327        -0.111109
 O         0.320503        -1.013123         2.008976
 H         3.726301        -1.668898        -0.956847
 H         2.590215        -2.731156        -0.023466
 H         2.063417        -1.620056        -1.357546
 H         4.277526         0.503220        -0.076607
 H         3.133072         2.687651         1.541834
 H         0.814330         1.856055         2.054881
 H         0.433340         0.431073        -1.042555
 H        -0.073100        -1.150516        -0.397473
 H        -0.786277         0.512058         0.111650
 H         0.377036        -0.691989         2.920683
