19
Iteration:  2646charge 0 multiplicity 1
 C         2.623741        -1.797977        -0.429793
 C         2.538678        -0.573191         0.463176
 O         3.447185        -0.838061         1.531267
 C         3.547939         0.469375         0.916004
 C         2.677449         1.524358         1.669158
 C         1.356302         1.339831         1.482817
 C         1.071352        -0.122442         0.933164
 C         0.141296         0.014426        -0.346657
 O         0.520564        -0.975051         1.955086
 H         3.059763        -1.555705        -1.335913
 H         3.201262        -2.608569        -0.014843
 H         1.670034        -2.271814        -0.798668
 H         4.445885         0.848389         0.363604
 H         2.999860         2.387238         2.230409
 H         0.474562         1.787122         2.007179
 H         0.475014         0.696466        -1.110911
 H        -0.130158        -1.000272        -0.690693
 H        -0.776638         0.504672         0.043141
 H         1.179799        -0.898465         2.763686
