19
Iteration:  3646
 C         2.716140        -1.598650        -0.752712
 C         2.499800        -0.694437         0.525662
 O         3.417347        -0.721894         1.629975
 C         3.452640         0.442231         0.726300
 C         2.659743         1.594591         1.358890
 C         1.386437         1.256378         1.527109
 C         1.118277        -0.130851         1.090375
 C         0.057547        -0.180300        -0.048897
 O         0.566726        -0.961473         2.095008
 H         3.818560        -1.966585        -0.572182
 H         1.976272        -2.367956        -0.682483
 H         2.762748        -0.878950        -1.629350
 H         4.481369         0.501412         0.255818
 H         2.969001         2.624596         1.645454
 H         0.551198         1.704196         2.035343
 H         0.344608         0.225930        -1.096530
 H        -0.366699        -1.200842        -0.117481
 H        -0.769417         0.387671         0.390268
 H         1.361124        -1.228761         2.552059
