19
Iteration:  1597
 C         2.728227        -1.635377        -0.619960
 C         2.540733        -0.549967         0.405639
 O         3.252329        -0.996573         1.656568
 C         3.520787         0.279789         1.058301
 C         2.814381         1.448015         1.742407
 C         1.461458         1.454916         1.456913
 C         1.095581        -0.001273         0.738451
 C        -0.004177        -0.179014        -0.204197
 O         0.505242        -0.749317         1.913109
 H         2.283533        -2.572533        -0.376705
 H         2.616867        -1.391084        -1.627842
 H         3.832295        -1.995972        -0.630462
 H         4.412992         0.377350         0.450673
 H         3.445434         2.103907         2.299650
 H         0.652007         2.125954         1.771535
 H         0.255620         0.043296        -1.237391
 H        -0.261312        -1.216137        -0.196555
 H        -0.848954         0.389453         0.291242
 H         1.161114        -0.597847         2.704730
