19
Iteration:  4171
 C         2.724929        -1.679268        -0.580320
 C         2.518332        -0.650265         0.472637
 O         3.495903        -0.707670         1.514879
 C         3.406240         0.478862         0.687346
 C         2.584559         1.610034         1.422320
 C         1.305574         1.253856         1.607005
 C         1.152940        -0.158740         0.989333
 C         0.042721        -0.224727        -0.037293
 O         0.641120        -0.924609         2.066966
 H         2.423164        -1.126305        -1.561232
 H         3.835602        -1.945858        -0.448647
 H         2.115583        -2.569875        -0.339976
 H         4.217416         0.729487        -0.064268
 H         3.114627         2.442281         1.818290
 H         0.536774         1.839245         2.095019
 H         0.302914         0.018980        -1.107537
 H        -0.452816        -1.267842         0.026378
 H        -0.822786         0.479852         0.218299
 H         1.280902        -0.904622         2.816326
