19
Iteration:  4438charge 0 multiplicity 1
 C         2.574063        -1.756402        -0.542524
 C         2.481775        -0.588220         0.464822
 O         3.385748        -0.640406         1.593510
 C         3.436724         0.498049         0.754315
 C         2.656383         1.676504         1.344547
 C         1.402602         1.254441         1.483850
 C         1.168020        -0.211569         0.986473
 C        -0.042233        -0.128290        -0.088539
 O         0.796668        -1.081246         2.120621
 H         2.824462        -1.468570        -1.561073
 H         3.230004        -2.556564        -0.240648
 H         1.529844        -2.052594        -0.595601
 H         4.390996         0.700009         0.176297
 H         2.974796         2.681678         1.557932
 H         0.632729         1.789640         2.014987
 H         0.083594         0.729214        -0.711260
 H         0.064642        -1.040461        -0.551314
 H        -0.836652         0.079423         0.548939
 H         1.627085        -1.115301         2.598296
