19
Iteration:   420charge 0 multiplicity 1
 C         2.533719        -1.759999        -0.454252
 C         2.513964        -0.645110         0.493889
 O         3.426725        -0.759416         1.641678
 C         3.531314         0.379056         0.843618
 C         2.789323         1.491005         1.585559
 C         1.446887         1.213847         1.568933
 C         1.106177        -0.016973         0.887168
 C         0.139862        -0.028472        -0.286685
 O         0.463255        -0.845969         1.887311
 H         1.563731        -2.266202        -0.515003
 H         2.876179        -1.472428        -1.441906
 H         3.234201        -2.486385        -0.047060
 H         4.345413         0.648306         0.208075
 H         3.221929         2.357859         2.088588
 H         0.689557         1.746455         2.110036
 H        -0.490854        -0.906898        -0.050035
 H        -0.560463         0.785378        -0.281596
 H         0.611684        -0.134465        -1.267331
 H         1.097341        -1.046107         2.567932
