19
Iteration:  3634
 C         2.816063        -1.580904        -0.712754
 C         2.544734        -0.673715         0.489883
 O         3.418027        -0.689410         1.601014
 C         3.479417         0.488247         0.797815
 C         2.706894         1.575378         1.320848
 C         1.423280         1.192791         1.505791
 C         1.091459        -0.240971         1.004722
 C        -0.056758        -0.153611         0.034951
 O         0.475303        -0.958404         2.128213
 H         3.898590        -1.818588        -0.919303
 H         2.378886        -2.562783        -0.786883
 H         2.368865        -1.120401        -1.652922
 H         4.448399         0.669844         0.225356
 H         3.273752         2.494106         1.630240
 H         0.706245         1.873216         1.951061
 H         0.378907         0.385507        -0.901181
 H        -0.489495        -1.112754        -0.268870
 H        -0.821721         0.515892         0.384696
 H         1.062287        -1.113601         2.878216
