19
Iteration:  2050charge 0 multiplicity 1
 C         2.813648        -1.763881        -0.469978
 C         2.486212        -0.731314         0.622138
 O         3.355002        -0.780730         1.682299
 C         3.405536         0.433527         0.645517
 C         2.706099         1.624424         1.400202
 C         1.466992         1.261939         1.715851
 C         1.174540        -0.165687         0.978051
 C         0.203064         0.218226        -0.213856
 O         0.310676        -1.085875         1.825603
 H         2.131109        -2.585204        -0.466668
 H         2.754938        -1.184734        -1.382043
 H         3.826441        -2.250049        -0.473581
 H         4.394114         0.455502         0.134793
 H         3.162494         2.561752         1.642986
 H         0.791994         1.895526         2.322023
 H         0.717464         0.382713        -1.158615
 H        -0.619847        -0.489902        -0.148890
 H        -0.224212         1.184215         0.200039
 H         0.892879        -1.503980         2.563380
