19
Iteration:   664
 C         2.616042        -1.927923        -0.315006
 C         2.460960        -0.671916         0.425675
 O         3.487658        -0.822019         1.575690
 C         3.494436         0.429498         0.892396
 C         2.707738         1.546976         1.538692
 C         1.483890         1.180795         1.656641
 C         1.138825        -0.090714         0.870367
 C         0.196974         0.172065        -0.339004
 O         0.358078        -0.816413         1.865694
 H         2.102906        -2.752994         0.231250
 H         2.180106        -1.881882        -1.389005
 H         3.626427        -2.184483        -0.546359
 H         4.337224         0.753151         0.313009
 H         3.022267         2.464709         2.121066
 H         0.699995         1.647971         2.283506
 H         0.131904        -0.725404        -1.007865
 H        -0.876032         0.314345         0.042911
 H         0.490090         1.102809        -0.952954
 H         1.127866        -1.052820         2.576037
