19
Iteration:   806charge 0 multiplicity 1
 C         2.719395        -1.687168        -0.628434
 C         2.514186        -0.642867         0.445196
 O         3.362060        -0.943271         1.638682
 C         3.541331         0.356180         0.951773
 C         2.792259         1.524233         1.585261
 C         1.508985         1.219262         1.593116
 C         1.122987        -0.055738         0.843182
 C         0.055467        -0.149018        -0.305881
 O         0.364365        -0.595466         2.022931
 H         1.799079        -2.274987        -0.668911
 H         2.989426        -1.325339        -1.667693
 H         3.437222        -2.372027        -0.329464
 H         4.598917         0.532520         0.694601
 H         3.357345         2.380587         1.936983
 H         0.671120         1.769138         2.007998
 H        -0.525482        -1.000926         0.101626
 H        -0.681110         0.680327        -0.237494
 H         0.327109        -0.391683        -1.345921
 H         0.907108        -1.014148         2.610079
