19
Iteration:  1585
 C         2.751390        -1.594243        -0.705471
 C         2.477267        -0.637164         0.449245
 O         3.322730        -1.050679         1.619213
 C         3.497252         0.269722         1.079422
 C         2.777187         1.482709         1.689207
 C         1.477323         1.401978         1.410416
 C         1.081364        -0.023629         0.927953
 C         0.061191        -0.189456        -0.262309
 O         0.496199        -0.669654         1.954539
 H         2.082228        -2.367324        -0.421249
 H         2.336810        -1.257621        -1.592697
 H         3.842960        -1.858305        -0.672071
 H         4.542313         0.425225         0.909339
 H         3.268070         2.334049         2.156793
 H         0.627487         2.021656         1.819982
 H         0.382611         0.248463        -1.189324
 H        -0.094274        -1.245884        -0.357694
 H        -0.951563         0.238397        -0.123162
 H         0.944319        -0.400857         2.724277
