19
Iteration:  3652charge 0 multiplicity 1
 C         2.686066        -1.584756        -0.712302
 C         2.463286        -0.664065         0.493486
 O         3.441613        -0.769103         1.668790
 C         3.422631         0.430745         0.723546
 C         2.652072         1.628616         1.367088
 C         1.362208         1.270204         1.548319
 C         1.117909        -0.131736         1.034409
 C         0.095006        -0.169734        -0.071630
 O         0.627208        -0.972221         2.092005
 H         3.562466        -2.065533        -0.473438
 H         1.807382        -2.285964        -0.730264
 H         2.764709        -0.898228        -1.541839
 H         4.335030         0.560652         0.158046
 H         3.015634         2.629414         1.606042
 H         0.575711         1.817271         2.107991
 H         0.396266         0.082620        -1.058478
 H        -0.176872        -1.230067        -0.101698
 H        -0.850719         0.298978         0.248593
 H         1.443117        -1.264621         2.519556
