19
Iteration:   741charge 0 multiplicity 1
 C         2.653041        -1.616883        -0.580949
 C         2.597940        -0.695503         0.595453
 O         3.187504        -0.986308         1.854857
 C         3.603503         0.364178         1.104543
 C         2.798736         1.574695         1.179995
 C         1.481119         1.333462         1.402706
 C         1.131165        -0.075743         0.923428
 C        -0.011001         0.111189        -0.196247
 O         0.537448        -0.950798         1.892367
 H         1.821503        -2.348776        -0.603951
 H         2.438565        -1.023756        -1.550145
 H         3.504879        -2.222706        -0.634673
 H         4.639634         0.173659         1.067178
 H         3.294580         2.502731         1.316435
 H         0.722601         1.924897         1.784124
 H         0.310976        -0.527483        -1.076268
 H        -0.950505        -0.302994         0.287342
 H        -0.136635         1.165637        -0.598632
 H         1.259781        -1.164290         2.410238
