19
Iteration:  3839charge 0 multiplicity 1
 C         2.686232        -1.731680        -0.462689
 C         2.520959        -0.602726         0.396505
 O         3.380804        -0.679215         1.567455
 C         3.473090         0.491960         0.793525
 C         2.650153         1.627253         1.399895
 C         1.401493         1.212376         1.612344
 C         1.104290        -0.123189         0.901712
 C        -0.056004        -0.129357        -0.104582
 O         0.685139        -1.004113         1.988115
 H         2.260360        -2.614695         0.002855
 H         2.109397        -1.650649        -1.461797
 H         3.802577        -1.832366        -0.702287
 H         4.518036         0.726448         0.379908
 H         3.020169         2.509152         1.852144
 H         0.815028         1.732565         2.381905
 H         0.151564        -0.000280        -1.208172
 H        -0.273212        -1.160809         0.083261
 H        -0.821130         0.478258         0.277481
 H         1.561628        -1.050955         2.554202
