19
Iteration:   140charge 0 multiplicity 1
 C         2.501437        -1.590256        -0.605960
 C         2.637476        -0.670861         0.537905
 O         3.409179        -0.803124         1.790682
 C         3.626475         0.404964         0.882309
 C         2.806947         1.592391         1.448701
 C         1.509072         1.243604         1.530195
 C         1.115706        -0.112491         0.906441
 C         0.114165        -0.164245        -0.219980
 O         0.331849        -0.892477         1.894077
 H         1.898654        -2.480386        -0.356963
 H         1.721530        -1.198548        -1.257513
 H         3.360148        -1.875015        -1.182980
 H         4.575585         0.426906         0.418200
 H         3.231708         2.516042         1.769501
 H         0.709293         1.761745         2.065768
 H        -0.231955        -1.177531        -0.455686
 H        -0.712765         0.479696         0.072888
 H         0.572705         0.285472        -1.122751
 H         0.848760        -0.912015         2.838760
