19
Iteration:  3610
 C         2.870145        -1.572590        -0.632459
 C         2.486306        -0.647105         0.522368
 O         3.541403        -0.784866         1.582110
 C         3.490006         0.427308         0.768161
 C         2.683232         1.552981         1.359205
 C         1.381141         1.196832         1.503887
 C         1.055027        -0.119775         0.993362
 C        -0.146056        -0.081081        -0.026259
 O         0.529906        -0.972847         2.065132
 H         3.731716        -1.315096        -1.116378
 H         3.185186        -2.565332        -0.260820
 H         2.130105        -1.907746        -1.398608
 H         4.387550         0.509126         0.137522
 H         3.124358         2.516372         1.626132
 H         0.623891         1.837942         1.996728
 H        -0.066459         0.646635        -0.872408
 H        -0.491718        -1.058606        -0.366341
 H        -0.941838         0.303506         0.615492
 H         0.904700        -0.791594         2.920322
