19
Iteration:  1209charge 0 multiplicity 1
 C         2.435121        -1.666664        -0.440984
 C         2.533003        -0.555924         0.542207
 O         3.438563        -0.832303         1.673608
 C         3.562632         0.394813         0.931750
 C         2.714411         1.550609         1.517947
 C         1.416816         1.284757         1.573438
 C         1.091100        -0.096256         0.964836
 C         0.168756         0.047421        -0.260822
 O         0.528890        -1.075007         1.765662
 H         1.850669        -2.461235        -0.039008
 H         2.083998        -1.448847        -1.385873
 H         3.488892        -2.093717        -0.626657
 H         4.466888         0.589577         0.399586
 H         3.256465         2.486181         1.777215
 H         0.719430         2.109065         1.712154
 H         0.751372         0.099304        -1.181995
 H        -0.555999        -0.747174        -0.300669
 H        -0.424871         0.982958        -0.153390
 H         1.383293        -1.375549         2.328722
