19
Iteration:  2990charge 0 multiplicity 1
 C         2.687949        -1.457769        -0.638183
 C         2.557015        -0.623972         0.526758
 O         3.242226        -0.788091         1.701278
 C         3.489817         0.397991         0.967795
 C         2.685768         1.547295         1.327960
 C         1.371908         1.247565         1.335956
 C         1.128350        -0.196044         0.964070
 C         0.034607        -0.075492        -0.050718
 O         0.683082        -1.066803         2.032915
 H         2.521503        -0.876704        -1.526910
 H         3.663543        -1.993526        -0.722010
 H         1.957333        -2.313623        -0.663231
 H         4.582968         0.479464         0.708669
 H         3.077316         2.590294         1.443074
 H         0.646800         2.007457         1.577450
 H         0.357334         0.353001        -1.040676
 H        -0.251595        -1.095178        -0.392963
 H        -0.733626         0.573649         0.472234
 H         1.467468        -0.996134         2.696715
