19
Iteration:  1675charge 0 multiplicity 1
 C         2.600709        -1.609385        -0.522026
 C         2.477187        -0.675822         0.641528
 O         3.462603        -0.808979         1.726152
 C         3.454155         0.379422         0.820037
 C         2.763551         1.568065         1.350144
 C         1.480481         1.244776         1.593194
 C         1.097521        -0.171850         1.062487
 C         0.366691         0.114500        -0.334591
 O         0.247671        -1.040360         1.881007
 H         1.914685        -2.450157        -0.326327
 H         2.384374        -1.314230        -1.548035
 H         3.656924        -1.956126        -0.644972
 H         4.405219         0.327581         0.261891
 H         3.244872         2.522038         1.647966
 H         0.794698         1.916626         2.029963
 H         0.680172         1.066651        -0.798622
 H         0.153209        -0.799781        -0.890250
 H        -0.634852         0.446726         0.070556
 H         0.708391        -1.239537         2.655899
