19
Iteration:  4431
 C         2.594918        -1.697426        -0.460978
 C         2.515449        -0.554508         0.464069
 O         3.418077        -0.661507         1.571363
 C         3.446373         0.477638         0.731127
 C         2.638779         1.635611         1.303943
 C         1.381543         1.263838         1.541892
 C         1.130280        -0.203031         1.007317
 C        -0.074823        -0.091797        -0.091155
 O         0.818227        -1.088547         2.067973
 H         2.911106        -1.506209        -1.530682
 H         3.219395        -2.557091        -0.057343
 H         1.660549        -2.327210        -0.608500
 H         4.412843         0.625018         0.320775
 H         3.121503         2.611745         1.346970
 H         0.476970         1.798831         1.847285
 H         0.078601         0.850260        -0.656989
 H        -0.247752        -1.148779        -0.559123
 H        -0.993586         0.107625         0.595551
 H         1.560499        -1.279431         2.614417
