19
Iteration:  4551charge 0 multiplicity 1
 C         2.708045        -1.613689        -0.582643
 C         2.460854        -0.518916         0.477167
 O         3.283736        -0.810278         1.647182
 C         3.455968         0.473821         0.773265
 C         2.734446         1.561447         1.338283
 C         1.370506         1.332026         1.397776
 C         1.064828        -0.132066         0.938726
 C        -0.049816        -0.220678        -0.010294
 O         0.814457        -0.975387         2.144307
 H         1.840543        -2.350722        -0.570458
 H         2.785851        -1.225208        -1.635893
 H         3.579926        -2.308724        -0.480722
 H         4.367995         0.645191         0.268254
 H         3.301398         2.403305         1.741026
 H         0.538304         1.823078         1.927965
 H         0.050255         0.393156        -0.848855
 H        -0.125351        -1.279217        -0.243682
 H        -1.004695         0.189262         0.123664
 H         1.719879        -1.165179         2.569382
