19
Iteration:  1032charge 0 multiplicity 1
 C         2.765767        -1.691723        -0.569540
 C         2.614024        -0.642403         0.421525
 O         3.196997        -0.897985         1.709180
 C         3.552530         0.388686         0.994150
 C         2.739042         1.575272         1.550933
 C         1.441027         1.218577         1.517959
 C         1.145339        -0.115930         0.829656
 C        -0.106712         0.080992        -0.156105
 O         0.623058        -0.928130         1.847893
 H         1.956140        -2.436983        -0.450326
 H         2.775110        -1.319461        -1.648718
 H         3.681222        -2.175231        -0.457115
 H         4.619475         0.482825         0.696071
 H         3.196812         2.483881         1.897003
 H         0.635864         1.895850         1.872563
 H         0.162258        -0.115380        -1.155301
 H        -0.848880        -0.602030         0.226031
 H        -0.652043         1.054907        -0.088294
 H         1.102992        -0.685433         2.625654
