19
Iteration:  2932
 C         2.681107        -1.705222        -0.515065
 C         2.470012        -0.529986         0.441009
 O         3.445116        -0.701761         1.554249
 C         3.527744         0.494172         0.807870
 C         2.690756         1.493869         1.506244
 C         1.417872         1.189750         1.561670
 C         1.096881        -0.120746         0.988903
 C         0.116233        -0.114399        -0.109500
 O         0.468659        -1.002750         1.974737
 H         2.628166        -1.398598        -1.619363
 H         3.702540        -1.818726        -0.316841
 H         2.135411        -2.568176        -0.288873
 H         4.286893         0.563551         0.064127
 H         3.006027         2.467902         1.830549
 H         0.675400         1.986881         1.761130
 H         0.220758         0.790961        -0.743116
 H         0.128252        -1.020515        -0.730468
 H        -0.910704        -0.116321         0.189079
 H         1.060855        -0.970796         2.714320
