19
Iteration:   142charge 0 multiplicity 1
 C         2.482149        -1.592546        -0.604934
 C         2.633688        -0.657127         0.533397
 O         3.390371        -0.803258         1.787738
 C         3.612188         0.405375         0.895994
 C         2.817283         1.578007         1.455986
 C         1.532506         1.254879         1.522320
 C         1.099101        -0.110460         0.911920
 C         0.117299        -0.173350        -0.225919
 O         0.358562        -0.902553         1.896859
 H         1.926569        -2.484671        -0.352202
 H         1.793290        -1.174827        -1.282692
 H         3.397631        -1.860640        -1.169509
 H         4.589947         0.464300         0.471483
 H         3.241943         2.574194         1.721347
 H         0.669550         1.774326         2.010781
 H        -0.271912        -1.165973        -0.427523
 H        -0.707889         0.470825         0.030519
 H         0.546598         0.276666        -1.086848
 H         0.865834        -0.905682         2.767384
