19
Iteration:  3012
 C         2.753690        -1.627838        -0.717440
 C         2.539690        -0.596793         0.425152
 O         3.406026        -0.876831         1.679481
 C         3.460529         0.439561         0.928371
 C         2.744372         1.638923         1.560028
 C         1.405145         1.379366         1.430296
 C         1.065513        -0.082103         0.951558
 C        -0.101146        -0.215567        -0.107252
 O         0.599096        -0.960287         2.005135
 H         2.487307        -1.345347        -1.708043
 H         3.849492        -1.884293        -0.672796
 H         2.323599        -2.613338        -0.401885
 H         4.485947         0.451715         0.476202
 H         3.125260         2.594637         1.979550
 H         0.651430         2.038223         1.845091
 H         0.109464        -0.076663        -1.199869
 H        -0.345753        -1.316139        -0.146121
 H        -0.989512         0.443770         0.152066
 H         1.368995        -0.989659         2.573319
