19
Iteration:  2079charge 0 multiplicity 1
 C         2.834256        -1.709446        -0.530004
 C         2.466047        -0.592665         0.426901
 O         3.425202        -0.777248         1.654186
 C         3.546283         0.347121         0.923761
 C         2.717638         1.485276         1.495378
 C         1.441634         1.164402         1.595578
 C         1.112810        -0.130428         0.929353
 C         0.027045         0.066408        -0.269521
 O         0.384523        -0.889725         1.935015
 H         2.023065        -2.529665        -0.362597
 H         2.525348        -1.291752        -1.572073
 H         3.801236        -2.129895        -0.547739
 H         4.470521         0.496047         0.284880
 H         3.131156         2.359632         2.052502
 H         0.773917         1.807879         2.172597
 H         0.686549         0.208006        -1.191548
 H        -0.691407        -0.800468        -0.364460
 H        -0.614950         0.911682        -0.072257
 H         0.750668        -0.796351         2.812438
