19
Iteration:  4858
 C         2.792959        -1.680025        -0.602147
 C         2.494736        -0.673841         0.474913
 O         3.406291        -0.864605         1.559598
 C         3.467601         0.399095         0.860460
 C         2.676980         1.617552         1.401413
 C         1.348417         1.338672         1.461352
 C         1.103477        -0.108637         0.951824
 C        -0.041082        -0.215716        -0.090956
 O         0.598057        -0.787706         2.144933
 H         3.623731        -2.319602        -0.324541
 H         1.998289        -2.296107        -0.800717
 H         3.156844        -1.210371        -1.491472
 H         4.366420         0.479872         0.293979
 H         3.016492         2.600980         1.765500
 H         0.431616         1.971191         1.564228
 H         0.215343         0.480248        -0.874009
 H         0.041108        -1.274700        -0.321422
 H        -0.891557         0.233775         0.415951
 H         1.414613        -1.216179         2.519003
