19
Iteration:  3645
 C         2.726653        -1.598508        -0.751226
 C         2.509025        -0.695245         0.531434
 O         3.412801        -0.713825         1.621364
 C         3.455820         0.445509         0.732040
 C         2.661592         1.588305         1.355544
 C         1.392045         1.251317         1.523734
 C         1.117017        -0.135091         1.092296
 C         0.046655        -0.183098        -0.042146
 O         0.557853        -0.960409         2.097092
 H         3.806287        -1.946607        -0.614729
 H         2.009907        -2.401766        -0.707133
 H         2.745152        -0.897613        -1.659087
 H         4.497490         0.500725         0.266298
 H         2.989866         2.623945         1.650830
 H         0.550850         1.704300         2.024247
 H         0.336385         0.258020        -1.084426
 H        -0.386910        -1.188651        -0.129153
 H        -0.745397         0.411001         0.391440
 H         1.320985        -1.219665         2.568090
