19
Iteration:    20
 C         2.484622        -1.678264        -0.383208
 C         2.481037        -0.572394         0.605131
 O         3.475761        -0.880062         1.696057
 C         3.531056         0.416062         0.947315
 C         2.815596         1.603879         1.444227
 C         1.485062         1.432023         1.421516
 C         1.118536        -0.030580         0.962455
 C         0.068059         0.018399        -0.173932
 O         0.497035        -1.186688         1.757468
 H         1.938513        -2.558979         0.035610
 H         2.055099        -1.394951        -1.411457
 H         3.456341        -2.021098        -0.654026
 H         4.467418         0.437991         0.344639
 H         3.244487         2.604967         1.470084
 H         0.699297         2.182649         1.374020
 H        -0.281812        -0.965221        -0.468150
 H        -0.861864         0.436060         0.233911
 H         0.381829         0.508116        -1.123115
 H         1.095688        -1.303229         2.560309
