19
Iteration:   412
 C         2.479971        -1.831059        -0.491082
 C         2.497076        -0.602241         0.525479
 O         3.436902        -0.786991         1.639671
 C         3.519005         0.435571         0.820348
 C         2.713903         1.506982         1.560590
 C         1.441734         1.291695         1.553759
 C         1.112780        -0.053291         0.973686
 C         0.256644        -0.012157        -0.268243
 O         0.456525        -0.878503         1.907382
 H         1.450527        -2.270136        -0.588494
 H         2.726967        -1.466959        -1.495581
 H         3.239865        -2.682507        -0.212230
 H         4.471057         0.620473         0.230631
 H         3.280113         2.300602         2.104150
 H         0.673091         1.882154         2.052780
 H        -0.283938        -1.020743        -0.362586
 H        -0.457603         0.883842        -0.304849
 H         0.821888        -0.078812        -1.249950
 H         1.090272        -1.205450         2.478465
