19
Iteration:  1279charge 0 multiplicity 1
 C         2.884671        -1.543529        -0.640454
 C         2.475018        -0.646347         0.569978
 O         3.356659        -0.992344         1.660633
 C         3.481577         0.314462         0.886515
 C         2.792031         1.559993         1.382824
 C         1.452790         1.252029         1.518480
 C         1.075680        -0.113059         0.991607
 C         0.057957         0.010525        -0.239612
 O         0.344554        -0.883180         2.040949
 H         2.436194        -2.563425        -0.641268
 H         2.693331        -1.100065        -1.676964
 H         3.908917        -1.748939        -0.601227
 H         4.437547         0.512582         0.324303
 H         3.182617         2.372165         2.042499
 H         0.731718         2.020105         1.828631
 H         0.614404         0.636161        -0.942826
 H        -0.400684        -0.915003        -0.624801
 H        -0.772973         0.533353         0.049085
 H         0.865582        -0.625208         2.887175
