19
Iteration:  3381
 C         2.821116        -1.671134        -0.547158
 C         2.449482        -0.564503         0.388970
 O         3.353018        -0.775787         1.582598
 C         3.460839         0.443949         0.762755
 C         2.688933         1.626712         1.389214
 C         1.427447         1.229680         1.641682
 C         1.064753        -0.120497         0.956016
 C        -0.105159        -0.019979        -0.051166
 O         0.690760        -1.084623         2.033374
 H         3.475588        -1.341177        -1.264674
 H         3.336734        -2.440736         0.086810
 H         1.913967        -2.148824        -0.960976
 H         4.418270         0.619788         0.251431
 H         3.230960         2.626694         1.428474
 H         0.662553         1.937108         1.932994
 H         0.174982         0.277869        -1.027547
 H        -0.335967        -1.087133        -0.174552
 H        -1.079559         0.468193         0.142091
 H         1.374627        -1.104246         2.743735
