19
Iteration:  4393charge 0 multiplicity 1
 C         2.741578        -1.839559        -0.509168
 C         2.533025        -0.681633         0.481379
 O         3.429684        -0.527655         1.596418
 C         3.395437         0.528516         0.636232
 C         2.671703         1.676879         1.280463
 C         1.465269         1.265739         1.580184
 C         1.185745        -0.227770         1.015105
 C        -0.119538        -0.051124         0.097957
 O         0.582601        -1.168745         1.956302
 H         2.945825        -1.420930        -1.478508
 H         3.715368        -2.123178        -0.154192
 H         1.843846        -2.425794        -0.433805
 H         4.382658         0.725670         0.100570
 H         3.283988         2.585058         1.454253
 H         0.572072         1.769753         2.007900
 H         0.041582         0.649066        -0.761857
 H        -0.458795        -0.968153        -0.373264
 H        -0.699631         0.628825         0.685999
 H         1.260946        -1.199258         2.616140
