19
Iteration:   823
 C         2.638969        -1.655315        -0.697313
 C         2.526974        -0.687001         0.573418
 O         3.402425        -0.875986         1.650193
 C         3.540356         0.331811         0.915413
 C         2.799693         1.462146         1.580881
 C         1.485596         1.316902         1.420257
 C         1.095015        -0.109973         0.974127
 C         0.184991        -0.121105        -0.224289
 O         0.275647        -0.702121         2.025510
 H         1.789637        -2.355634        -0.737026
 H         2.689272        -1.001425        -1.545719
 H         3.662614        -2.159228        -0.653336
 H         4.372580         0.459145         0.249675
 H         3.276144         2.277204         2.114139
 H         0.758540         1.977126         1.840348
 H        -0.727435        -0.689255        -0.099511
 H        -0.077328         0.855443        -0.614967
 H         0.792356        -0.494121        -1.030117
 H         0.909488        -0.934120         2.660157
