19
Iteration:  4846
 C         2.717326        -1.665820        -0.696246
 C         2.478967        -0.669654         0.503267
 O         3.352958        -0.832042         1.649453
 C         3.425219         0.431977         0.845678
 C         2.695478         1.609212         1.522298
 C         1.401408         1.307434         1.354173
 C         1.104868        -0.120637         0.930940
 C         0.006062        -0.283512        -0.147047
 O         0.694462        -0.756987         2.173121
 H         3.491279        -2.334081        -0.290429
 H         1.897273        -2.258696        -0.960090
 H         3.016364        -1.111033        -1.554230
 H         4.334379         0.601332         0.292969
 H         3.259783         2.434158         1.883606
 H         0.623561         1.922103         1.873519
 H         0.136934         0.180096        -1.140689
 H        -0.368291        -1.260184        -0.509801
 H        -1.000100        -0.062469         0.271576
 H         1.461990        -0.855136         2.719831
