19
Iteration:  1208charge 0 multiplicity 1
 C         2.426913        -1.668925        -0.438038
 C         2.532798        -0.554316         0.541547
 O         3.436194        -0.832835         1.683893
 C         3.558106         0.393143         0.924852
 C         2.708667         1.553337         1.516046
 C         1.417949         1.293718         1.570169
 C         1.093300        -0.093703         0.962043
 C         0.178945         0.056485        -0.253712
 O         0.535250        -1.086960         1.761159
 H         1.828249        -2.466345        -0.028828
 H         2.069013        -1.451522        -1.406830
 H         3.481761        -2.108583        -0.649520
 H         4.477931         0.587240         0.403761
 H         3.282548         2.478309         1.807814
 H         0.700709         2.091699         1.710561
 H         0.758563         0.076944        -1.209673
 H        -0.529038        -0.808777        -0.312740
 H        -0.466782         1.032812        -0.127008
 H         1.415344        -1.343067         2.315905
