19
Iteration:  1412charge 0 multiplicity 1
 C         2.669714        -1.603296        -0.579569
 C         2.467843        -0.784220         0.642641
 O         3.496680        -0.801978         1.704376
 C         3.460299         0.376223         0.835622
 C         2.761761         1.539634         1.307665
 C         1.468744         1.214355         1.629138
 C         1.127944        -0.164705         1.061438
 C         0.312004         0.150949        -0.202121
 O         0.201726        -0.975662         1.834652
 H         2.385999        -2.661697        -0.346842
 H         2.190157        -1.060350        -1.384655
 H         3.827641        -1.637666        -0.808907
 H         4.232363         0.467878         0.127874
 H         3.336052         2.467325         1.392455
 H         0.766212         1.631970         2.360156
 H         0.761695         0.568780        -1.106522
 H        -0.146807        -0.816046        -0.561920
 H        -0.655436         0.669542         0.163568
 H         0.464387        -0.808974         2.702891
