19
Iteration:   926charge 0 multiplicity 1
 C         2.614372        -1.753858        -0.378337
 C         2.542798        -0.548720         0.434317
 O         3.415782        -0.853872         1.654900
 C         3.553062         0.354202         0.878201
 C         2.749628         1.504570         1.512792
 C         1.400877         1.224072         1.580933
 C         1.067422        -0.041517         0.900818
 C         0.073109         0.143210        -0.247358
 O         0.532147        -1.008934         1.780200
 H         1.945278        -2.416199         0.163654
 H         2.179549        -1.642067        -1.386823
 H         3.541082        -2.272862        -0.340858
 H         4.561999         0.568912         0.404050
 H         3.272509         2.249871         2.133137
 H         0.615877         1.774384         2.182664
 H         0.147628         1.151034        -0.573505
 H         0.230891        -0.410910        -1.135027
 H        -0.928091         0.118229         0.161510
 H         0.816845        -0.771141         2.739219
