19
Iteration:  2248charge 0 multiplicity 1
 C         2.510661        -1.660106        -0.479806
 C         2.495815        -0.590070         0.588379
 O         3.382622        -0.860547         1.720971
 C         3.450678         0.483167         0.864338
 C         2.778447         1.631929         1.476007
 C         1.452758         1.330643         1.537410
 C         1.037071        -0.113874         0.961811
 C         0.246383         0.022217        -0.328061
 O         0.516066        -1.113008         1.879108
 H         1.599053        -2.270552        -0.394243
 H         2.298523        -1.267831        -1.489365
 H         3.379535        -2.392467        -0.597593
 H         4.448778         0.525877         0.455884
 H         3.255796         2.550463         1.861614
 H         0.757233         1.885943         2.172515
 H         1.059259         0.324118        -1.012969
 H         0.081876        -1.022444        -0.681023
 H        -0.681132         0.669327        -0.213959
 H         1.317263        -1.539963         2.358697
