19
Iteration:  4792
 C         2.740261        -1.510880        -0.718184
 C         2.559310        -0.658224         0.511698
 O         3.323497        -0.997638         1.671925
 C         3.444924         0.430820         0.951268
 C         2.745195         1.694762         1.374490
 C         1.411792         1.433555         1.281681
 C         1.102229        -0.117519         0.989190
 C        -0.099427        -0.354125        -0.013754
 O         0.636274        -0.851366         2.114180
 H         3.784910        -1.787568        -0.950311
 H         2.323045        -2.381564        -0.347391
 H         2.270360        -0.986190        -1.517565
 H         4.458668         0.441033         0.567168
 H         3.305906         2.521013         1.720540
 H         0.643293         2.217607         1.359649
 H         0.406684        -0.135149        -0.959334
 H        -0.299432        -1.429970        -0.197204
 H        -0.950332         0.357164         0.127437
 H         1.408168        -1.120328         2.607553
