19
Iteration:   145
 C         2.465994        -1.601253        -0.604637
 C         2.615972        -0.634066         0.534424
 O         3.363733        -0.803243         1.776656
 C         3.581389         0.402679         0.920509
 C         2.838715         1.559671         1.463862
 C         1.548588         1.269121         1.509251
 C         1.086262        -0.109848         0.928031
 C         0.121109        -0.178658        -0.232581
 O         0.401508        -0.916720         1.901692
 H         1.976623        -2.538378        -0.302472
 H         1.873926        -1.083555        -1.391161
 H         3.437753        -1.840997        -1.121861
 H         4.642017         0.525045         0.535174
 H         3.246253         2.592911         1.658515
 H         0.676023         1.810789         1.911370
 H        -0.319374        -1.171287        -0.382552
 H        -0.748552         0.473248        -0.016097
 H         0.533698         0.286203        -1.119901
 H         0.905489        -0.895020         2.652297
