19
Iteration:  4840charge 0 multiplicity 1
 C         2.670947        -1.628021        -0.714653
 C         2.490820        -0.643222         0.468576
 O         3.329381        -0.803444         1.714745
 C         3.400443         0.464794         0.852589
 C         2.739038         1.523359         1.520042
 C         1.410180         1.311842         1.310629
 C         1.067194        -0.147014         0.932050
 C        -0.009219        -0.333596        -0.170474
 O         0.727202        -0.750686         2.171919
 H         3.416186        -2.384852        -0.441043
 H         1.716776        -2.264601        -0.861391
 H         3.021742        -0.974484        -1.570242
 H         4.392242         0.624572         0.387786
 H         3.312291         2.357066         2.033866
 H         0.718466         1.820328         1.972947
 H         0.313735         0.137461        -1.112043
 H        -0.146885        -1.402095        -0.451061
 H        -0.910250         0.070630         0.306139
 H         1.587486        -0.556712         2.666015
