19
Iteration:  2366charge 0 multiplicity 1
 C         2.514102        -1.673553        -0.606227
 C         2.568019        -0.595185         0.563032
 O         3.402548        -0.770111         1.771307
 C         3.557744         0.396509         0.954564
 C         2.726275         1.541782         1.490669
 C         1.430194         1.179120         1.571588
 C         1.096453        -0.155248         0.974850
 C         0.237840         0.019466        -0.396227
 O         0.437719        -0.989006         1.920075
 H         2.087068        -2.602737        -0.258096
 H         1.829206        -1.294956        -1.408804
 H         3.485812        -1.877648        -1.217331
 H         4.551440         0.462831         0.510823
 H         3.003367         2.550395         1.807105
 H         0.588636         1.868356         1.853776
 H         0.893131         0.453034        -1.199864
 H        -0.273687        -0.896634        -0.827522
 H        -0.562297         0.847309        -0.252424
 H         0.948421        -0.791952         2.810884
