19
Iteration:  3499charge 0 multiplicity 1
 C         2.911851        -1.754835        -0.591571
 C         2.584213        -0.642613         0.493911
 O         3.505098        -0.735829         1.590669
 C         3.503816         0.518960         0.712961
 C         2.641505         1.583210         1.302715
 C         1.440196         1.120173         1.658637
 C         1.046673        -0.157678         1.036588
 C        -0.060676         0.010585        -0.123859
 O         0.337005        -0.969760         2.055169
 H         2.044260        -1.900681        -1.258955
 H         3.652054        -1.199012        -1.272722
 H         3.359374        -2.568482        -0.071650
 H         4.398854         0.622033         0.097927
 H         3.046066         2.555966         1.746402
 H         0.817369         1.753647         2.308256
 H         0.289616         0.480656        -0.987555
 H        -0.611120        -0.942885        -0.156731
 H        -0.780024         0.800022         0.300584
 H         1.056785        -1.314814         2.585056
