19
Iteration:  4251charge 0 multiplicity 1
 C         2.820722        -1.606428        -0.636272
 C         2.527436        -0.637770         0.476001
 O         3.327560        -0.829382         1.660360
 C         3.478152         0.517760         0.818598
 C         2.603517         1.657193         1.240078
 C         1.377604         1.268609         1.445283
 C         1.072293        -0.138319         0.959765
 C        -0.096838        -0.139871         0.019925
 O         0.757727        -1.045845         2.140300
 H         2.232835        -1.459145        -1.605570
 H         3.993849        -1.573406        -0.826494
 H         2.503867        -2.724751        -0.342210
 H         4.463937         0.715351         0.520386
 H         3.067583         2.649749         1.270677
 H         0.528101         1.924784         1.659847
 H        -0.200435         0.652089        -0.791524
 H        -0.459813        -1.118852        -0.282047
 H        -0.915809         0.251313         0.650502
 H         1.591389        -1.238029         2.557599
