19
Iteration:   393charge 0 multiplicity 1
 C         2.390866        -1.778431        -0.500479
 C         2.527924        -0.767924         0.582906
 O         3.436427        -0.849082         1.624026
 C         3.389514         0.425252         0.841803
 C         2.702478         1.691717         1.453891
 C         1.457264         1.356872         1.551916
 C         1.096439        -0.122747         1.023301
 C         0.446569         0.095539        -0.345477
 O         0.441735        -1.018000         2.001136
 H         1.472860        -2.349715        -0.325145
 H         2.466948        -1.459581        -1.546610
 H         3.223405        -2.497041        -0.253176
 H         4.309994         0.703998         0.237021
 H         3.281091         2.631155         1.618117
 H         0.618768         1.959333         1.977384
 H         0.182780        -0.785948        -0.949474
 H        -0.442673         0.741289        -0.124865
 H         1.158394         0.600012        -1.007317
 H         1.102833        -1.344667         2.581051
