19
Iteration:  1434charge 0 multiplicity 1
 C         2.546739        -1.777262        -0.538194
 C         2.469099        -0.641768         0.540579
 O         3.442671        -0.833054         1.674856
 C         3.474783         0.445717         0.789569
 C         2.766884         1.593699         1.472234
 C         1.465662         1.254290         1.680567
 C         1.081535        -0.075768         1.089711
 C         0.362755         0.074071        -0.238235
 O         0.319082        -1.035692         1.798058
 H         2.146693        -2.732594        -0.080783
 H         2.027705        -1.354281        -1.386011
 H         3.637660        -1.992396        -0.979632
 H         4.397906         0.484316         0.295577
 H         3.241192         2.571972         1.708983
 H         0.656562         2.002054         1.910455
 H         1.049361         0.672808        -0.866335
 H         0.163700        -0.795313        -0.906878
 H        -0.659885         0.625117        -0.082638
 H         0.697561        -0.931173         2.766308
