19
Iteration:  2477
 C         2.777060        -1.552766        -0.681027
 C         2.498755        -0.666242         0.486437
 O         3.274784        -0.923349         1.784428
 C         3.581990         0.362523         1.077274
 C         2.741696         1.525450         1.413021
 C         1.415717         1.291098         1.382323
 C         1.021775        -0.081428         0.927480
 C         0.033874        -0.016429        -0.193021
 O         0.517892        -0.911017         1.985552
 H         1.887965        -1.773680        -1.343977
 H         3.512774        -1.023086        -1.361854
 H         3.232131        -2.428602        -0.243780
 H         4.597534         0.282695         0.631546
 H         3.219554         2.362908         1.899733
 H         0.712030         2.110571         1.448279
 H         0.538160         0.667228        -0.911581
 H         0.067702        -1.064675        -0.646696
 H        -1.004894         0.240296         0.207074
 H         1.255651        -1.240472         2.557612
