19
Iteration:  1442charge 0 multiplicity 1
 C         2.516203        -1.782024        -0.500442
 C         2.482248        -0.619529         0.513019
 O         3.432585        -0.799065         1.651868
 C         3.456712         0.447285         0.869387
 C         2.774769         1.531416         1.531069
 C         1.471002         1.264969         1.645718
 C         1.079268        -0.118076         0.995102
 C         0.346612         0.143257        -0.301367
 O         0.378031        -1.032182         1.834663
 H         2.070578        -2.604181         0.077188
 H         1.909144        -1.598414        -1.405460
 H         3.524667        -2.065472        -0.684360
 H         4.314220         0.691534         0.215631
 H         3.315059         2.462595         1.575347
 H         0.680978         1.818645         2.081929
 H         0.876589         0.789171        -0.977850
 H         0.096025        -0.876163        -0.699057
 H        -0.634513         0.541741        -0.183120
 H         0.914447        -1.136447         2.683941
