19
Iteration:  2693charge 0 multiplicity 1
 C         2.807391        -1.542994        -0.668401
 C         2.492760        -0.618590         0.517886
 O         3.298488        -0.818423         1.755812
 C         3.492091         0.330885         0.929869
 C         2.777904         1.565250         1.410274
 C         1.463130         1.341968         1.501082
 C         1.051513        -0.126403         0.951077
 C         0.025274        -0.130117        -0.165387
 O         0.461854        -0.975463         1.975870
 H         3.808004        -1.379653        -1.197315
 H         2.769115        -2.637660        -0.519695
 H         2.155219        -1.458294        -1.519089
 H         4.566497         0.331273         0.601735
 H         3.257222         2.533475         1.637157
 H         0.790968         2.002445         2.019396
 H         0.638181         0.081884        -1.050261
 H        -0.573302        -1.056976        -0.276996
 H        -0.570879         0.778244        -0.210994
 H         1.223755        -1.201150         2.598731
