19
Iteration:  3688charge 0 multiplicity 1
 C         2.462117        -1.704785        -0.540508
 C         2.511390        -0.528833         0.404927
 O         3.372953        -0.698323         1.589837
 C         3.556673         0.506966         0.803669
 C         2.617661         1.630521         1.556755
 C         1.344737         1.285841         1.443412
 C         1.132775        -0.150997         0.904721
 C         0.033209        -0.159474        -0.137906
 O         0.808512        -1.097397         2.117197
 H         2.896072        -2.674230        -0.205295
 H         1.496452        -1.914361        -0.923478
 H         3.152801        -1.625389        -1.458178
 H         4.618163         0.617521         0.332897
 H         2.983045         2.641954         1.889940
 H         0.556481         1.861100         1.909098
 H         0.422637         0.378455        -1.102511
 H        -0.103621        -1.228229        -0.283681
 H        -0.894460         0.279432         0.144439
 H         1.632710        -1.019503         2.663154
