19
Iteration:  1663charge 0 multiplicity 1
 C         2.649354        -1.650941        -0.550315
 C         2.498785        -0.685876         0.585613
 O         3.323795        -0.875562         1.718065
 C         3.513128         0.341005         0.906014
 C         2.745006         1.569971         1.369491
 C         1.422259         1.337546         1.509404
 C         1.129726        -0.136472         1.017017
 C         0.295415         0.124831        -0.188555
 O         0.366881        -1.070321         1.886318
 H         2.033549        -2.540076        -0.514736
 H         2.355262        -0.992888        -1.324722
 H         3.738896        -2.027474        -0.617835
 H         4.330059         0.536514         0.181377
 H         3.133816         2.584238         1.349251
 H         0.653315         1.972431         1.834098
 H         0.974592         0.842239        -0.693655
 H         0.214855        -0.512978        -1.037999
 H        -0.725806         0.566723         0.054520
 H         0.750834        -0.976504         2.820269
