19
Iteration:  2358charge 0 multiplicity 1
 C         2.580881        -1.725501        -0.611675
 C         2.515834        -0.696261         0.576826
 O         3.402826        -0.794666         1.731678
 C         3.546282         0.461211         0.965625
 C         2.744981         1.613455         1.534063
 C         1.433971         1.204226         1.518888
 C         1.103957        -0.179378         0.944833
 C         0.226858         0.115301        -0.326648
 O         0.401790        -1.001964         1.907855
 H         2.302173        -2.736708        -0.190609
 H         1.728279        -1.382924        -1.248356
 H         3.559181        -1.704584        -1.063901
 H         4.442547         0.512290         0.293469
 H         3.160309         2.597034         1.650830
 H         0.682523         1.834491         2.061499
 H         0.926240         0.368066        -1.118586
 H        -0.142700        -0.883205        -0.755007
 H        -0.694021         0.725234        -0.376404
 H         0.888645        -0.971483         2.796815
