19
Iteration:  4565
 C         2.617340        -1.662871        -0.559659
 C         2.437814        -0.640374         0.461433
 O         3.346989        -0.771307         1.608752
 C         3.429958         0.446555         0.783978
 C         2.718498         1.645629         1.412522
 C         1.389719         1.330186         1.431091
 C         1.083225        -0.077274         1.042102
 C        -0.019662        -0.228013        -0.079489
 O         0.797950        -0.988826         2.069873
 H         2.048930        -2.586686        -0.254955
 H         2.337639        -1.250872        -1.544435
 H         3.731158        -1.757195        -0.488079
 H         4.425627         0.466306         0.243692
 H         3.127673         2.598085         1.727836
 H         0.750971         2.141061         1.713563
 H         0.293771         0.494057        -0.908668
 H        -0.051877        -1.260079        -0.554787
 H        -0.990389        -0.167249         0.420808
 H         1.686472        -1.146213         2.384271
