19
Iteration:  3832charge 0 multiplicity 1
 C         2.640222        -1.771876        -0.483783
 C         2.527895        -0.540134         0.437894
 O         3.422562        -0.692674         1.555361
 C         3.441676         0.527479         0.792609
 C         2.642526         1.569510         1.445730
 C         1.354968         1.308015         1.606717
 C         1.136108        -0.085834         0.956094
 C         0.004103        -0.176454        -0.116064
 O         0.725695        -1.013182         1.935358
 H         2.119912        -2.760992        -0.226955
 H         2.210684        -1.730983        -1.447465
 H         3.656866        -2.122544        -0.486259
 H         4.330948         0.638734         0.241595
 H         3.136990         2.498931         1.779068
 H         0.685943         1.776528         2.367518
 H         0.077225         0.045011        -1.171048
 H        -0.519342        -1.177181         0.033335
 H        -0.888791         0.436200         0.250297
 H         1.417201        -1.135048         2.627577
