19
Iteration:  2019charge 0 multiplicity 1
 C         2.488676        -1.792618        -0.409807
 C         2.501785        -0.649287         0.563939
 O         3.515329        -0.681156         1.721852
 C         3.566724         0.393382         0.792592
 C         2.683858         1.559257         1.365718
 C         1.398766         1.220271         1.707061
 C         1.079798        -0.115354         0.995611
 C         0.296275         0.279264        -0.269164
 O         0.390543        -1.201499         1.780793
 H         1.755816        -2.541346        -0.216653
 H         2.221564        -1.518281        -1.414159
 H         3.552172        -2.210570        -0.503176
 H         4.519902         0.610564         0.283081
 H         2.904685         2.595309         1.463707
 H         0.635415         1.928746         2.108407
 H         0.767573         0.895979        -1.015412
 H        -0.037876        -0.646577        -0.684010
 H        -0.451136         1.032801         0.121834
 H         1.008907        -1.636690         2.362640
