19
Iteration:  2995
 C         2.708191        -1.520608        -0.654475
 C         2.520187        -0.585465         0.508485
 O         3.265562        -0.794217         1.677540
 C         3.536200         0.388766         1.008158
 C         2.684515         1.588152         1.359823
 C         1.403075         1.281831         1.354290
 C         1.104104        -0.189430         0.956710
 C        -0.004288        -0.128291        -0.057159
 O         0.673963        -1.052619         2.028999
 H         2.453257        -0.974494        -1.608608
 H         3.731250        -1.930545        -0.730291
 H         1.988459        -2.346208        -0.732848
 H         4.508579         0.627679         0.615005
 H         3.173998         2.503064         1.614172
 H         0.571322         2.012883         1.466382
 H         0.451847         0.346896        -0.911798
 H        -0.412527        -1.103079        -0.324430
 H        -0.678514         0.558770         0.403534
 H         1.316591        -1.039098         2.697422
