19
Iteration:  2165
 C         2.892229        -1.485313        -0.787152
 C         2.479061        -0.676602         0.549214
 O         3.233708        -0.975066         1.792992
 C         3.450980         0.274000         1.022436
 C         2.757186         1.460054         1.475228
 C         1.430058         1.382639         1.316788
 C         1.141487        -0.061110         0.849542
 C        -0.056050        -0.104705        -0.110002
 O         0.551937        -0.807033         2.029856
 H         2.423238        -2.476331        -0.941467
 H         3.067033        -0.826551        -1.652827
 H         3.872055        -1.769790        -0.583069
 H         4.503791         0.370867         0.667001
 H         3.243839         2.344214         1.883891
 H         0.583085         2.005809         1.650088
 H        -0.021923         0.635212        -0.903867
 H        -0.218619        -1.112632        -0.516248
 H        -0.934993         0.116740         0.408944
 H         1.325717        -1.111218         2.533796
