19
Iteration:  2111charge 0 multiplicity 1
 C         2.644526        -1.623708        -0.626789
 C         2.505088        -0.634036         0.523736
 O         3.349151        -0.982932         1.700857
 C         3.446055         0.395759         0.995189
 C         2.725713         1.516244         1.642153
 C         1.431087         1.414674         1.392794
 C         1.136336        -0.045804         0.931119
 C         0.128368        -0.163926        -0.225381
 O         0.564707        -0.823935         1.911039
 H         2.016176        -2.551731        -0.438705
 H         1.967246        -1.127895        -1.380220
 H         3.609452        -1.817504        -0.978537
 H         4.422536         0.437372         0.472373
 H         3.111254         2.374390         2.209600
 H         0.654526         2.159575         1.625520
 H         0.368542         0.466668        -1.115490
 H         0.078852        -1.174853        -0.654011
 H        -0.843420         0.211418        -0.056109
 H         1.349714        -1.244995         2.435747
