19
Iteration:  4790
 C         2.752904        -1.520206        -0.720351
 C         2.564887        -0.653773         0.515485
 O         3.324643        -0.995473         1.668890
 C         3.458298         0.424839         0.944122
 C         2.734664         1.680592         1.368991
 C         1.405876         1.440680         1.277479
 C         1.092120        -0.116538         1.009933
 C        -0.112208        -0.340643        -0.023405
 O         0.629582        -0.857458         2.120018
 H         3.811962        -1.709025        -0.960747
 H         2.382142        -2.432646        -0.335516
 H         2.287844        -1.003559        -1.509295
 H         4.490306         0.407687         0.518514
 H         3.284583         2.513329         1.742901
 H         0.617222         2.184372         1.320303
 H         0.400531        -0.046216        -0.993399
 H        -0.259510        -1.432939        -0.146001
 H        -0.909246         0.411089         0.182280
 H         1.425745        -1.092733         2.596265
