19
Iteration:  3988
 C         2.717138        -1.680119        -0.675762
 C         2.556367        -0.658258         0.479387
 O         3.383209        -0.672990         1.720381
 C         3.404605         0.464880         0.864494
 C         2.655236         1.615557         1.334405
 C         1.354361         1.246776         1.499230
 C         1.195043        -0.172415         0.971012
 C        -0.054353        -0.091247        -0.074870
 O         0.667271        -1.048315         2.054578
 H         3.041186        -2.660051        -0.359735
 H         1.725336        -1.781537        -1.266561
 H         3.404348        -1.336402        -1.506172
 H         4.388542         0.532111         0.266913
 H         3.080509         2.603463         1.516210
 H         0.574704         2.029766         1.756490
 H         0.369328        -0.163879        -1.157884
 H        -0.518369        -0.999409         0.374631
 H        -0.676979         0.824565         0.105734
 H         1.427108        -1.077207         2.601567
