19
Iteration:  4718
 C         2.643116        -1.784623        -0.443576
 C         2.414593        -0.548600         0.416658
 O         3.435968        -0.736773         1.565859
 C         3.490038         0.443746         0.804650
 C         2.709402         1.648774         1.383718
 C         1.410761         1.293569         1.565148
 C         1.091019        -0.147519         1.043311
 C         0.069879        -0.125606        -0.125344
 O         0.598675        -1.008591         1.964193
 H         3.685911        -1.759375        -0.907524
 H         2.494769        -2.583931         0.362413
 H         1.820909        -1.756581        -1.227469
 H         4.321906         0.618930         0.122743
 H         3.213145         2.565986         1.605889
 H         0.695123         2.087348         1.850150
 H         0.216618         0.782844        -0.713216
 H         0.162011        -1.120924        -0.618393
 H        -0.904924         0.068167         0.314468
 H         1.356701        -1.199380         2.490287
