19
Iteration:  1893
 C         2.661016        -1.352412        -0.687356
 C         2.502065        -0.641243         0.559515
 O         3.174443        -0.978490         1.798146
 C         3.511025         0.272413         1.079284
 C         2.857847         1.493422         1.467513
 C         1.491088         1.415174         1.303538
 C         1.032649        -0.086706         0.915623
 C         0.099669        -0.210784        -0.231827
 O         0.573452        -0.912152         1.987789
 H         1.950633        -2.043021        -1.122562
 H         2.672347        -0.547677        -1.429508
 H         3.572337        -1.886295        -0.699503
 H         4.527078         0.199128         0.786612
 H         3.412714         2.365128         1.731078
 H         0.863640         2.289380         1.522933
 H         0.582132        -0.171987        -1.208303
 H        -0.503534        -1.135009        -0.115897
 H        -0.656058         0.497862        -0.045653
 H         1.301341        -0.870612         2.637726
