19
Iteration:  2792
 C         2.760459        -1.718330        -0.556790
 C         2.446669        -0.579211         0.492997
 O         3.456385        -0.847600         1.598297
 C         3.473548         0.387478         0.869817
 C         2.725929         1.562371         1.599183
 C         1.387219         1.332239         1.554598
 C         1.041047        -0.014243         0.904812
 C         0.043645        -0.107311        -0.220485
 O         0.521787        -0.921878         1.945834
 H         2.674029        -2.783541        -0.056589
 H         2.212269        -1.880953        -1.470535
 H         3.776769        -1.755278        -0.886008
 H         4.355783         0.556815         0.289772
 H         3.275377         2.450503         1.933108
 H         0.620929         2.004707         2.027285
 H        -0.067727         0.795804        -0.868962
 H         0.115556        -1.096715        -0.722045
 H        -0.932712        -0.278217         0.215367
 H         1.335961        -0.919300         2.599638
