19
Iteration:  1610charge 0 multiplicity 1
 C         2.776000        -1.669974        -0.587045
 C         2.492747        -0.602560         0.459872
 O         3.164513        -0.912441         1.692657
 C         3.553961         0.363134         0.983052
 C         2.819279         1.405822         1.689869
 C         1.537010         1.320587         1.414588
 C         1.152484         0.054799         0.817608
 C        -0.089216        -0.126486        -0.219306
 O         0.567767        -0.798856         1.875098
 H         2.056489        -2.469069        -0.344514
 H         2.431224        -1.312962        -1.568826
 H         3.876356        -1.874308        -0.434281
 H         4.632129         0.529256         0.750110
 H         3.118934         2.097040         2.443156
 H         0.891001         2.033112         1.801511
 H         0.030019         0.242828        -1.289443
 H        -0.447905        -1.163729        -0.144669
 H        -0.957350         0.553519         0.082377
 H         1.303999        -1.063235         2.409376
