19
Iteration:  1721
 C         2.621628        -1.913589        -0.305607
 C         2.537651        -0.660480         0.491168
 O         3.553982        -0.732089         1.510019
 C         3.426081         0.548737         0.782325
 C         2.772991         1.513950         1.636144
 C         1.483696         1.166403         1.703107
 C         1.115101        -0.108573         0.903749
 C         0.235261         0.196301        -0.281296
 O         0.207890        -0.955703         1.770140
 H         1.949830        -2.691747         0.159913
 H         2.456639        -1.985127        -1.432505
 H         3.622323        -2.125389        -0.292239
 H         4.229830         0.908074         0.164685
 H         3.295482         2.187241         2.329558
 H         0.559387         1.544793         2.225806
 H         0.936566         0.517032        -1.088830
 H        -0.149738        -0.854594        -0.470187
 H        -0.562499         0.907104        -0.303409
 H         0.721451        -1.177363         2.556805
