19
Iteration:    95charge 0 multiplicity 1
 C         2.863128        -1.837265        -0.423261
 C         2.441600        -0.708657         0.547571
 O         3.498058        -0.804084         1.487226
 C         3.368524         0.398626         0.695371
 C         2.759428         1.507512         1.456977
 C         1.425990         1.315445         1.650285
 C         1.015160        -0.129117         1.089082
 C         0.266365         0.234576        -0.297346
 O         0.255931        -0.968010         2.021514
 H         2.377539        -2.789540        -0.111055
 H         2.512121        -1.874168        -1.513254
 H         3.905927        -1.851817        -0.266259
 H         4.069630         0.518394        -0.138069
 H         3.153854         2.402985         1.864924
 H         0.637960         1.917513         2.047627
 H         0.099605        -0.711971        -0.836339
 H        -0.702370         0.750973        -0.156174
 H         0.829499         0.920347        -1.002720
 H         0.922794        -1.171762         2.845783
