19
Iteration:  4978charge 0 multiplicity 1
 C         2.610608        -1.837180        -0.368471
 C         2.547844        -0.683606         0.557041
 O         3.658050        -0.587830         1.541528
 C         3.396210         0.529219         0.658551
 C         2.669491         1.497845         1.407042
 C         1.422247         1.169132         1.656982
 C         1.071091        -0.169980         0.980570
 C         0.075125        -0.054293        -0.247893
 O         0.414018        -0.867123         1.973831
 H         3.459289        -1.872849        -1.077689
 H         2.668540        -2.733332         0.237757
 H         1.767018        -1.851482        -1.075486
 H         4.230159         0.806208         0.010226
 H         3.337637         2.204193         2.002246
 H         0.782780         1.554304         2.423524
 H         0.613502         0.373785        -1.130077
 H        -0.245137        -1.072862        -0.558584
 H        -0.745632         0.744412        -0.006827
 H         1.031217        -1.143445         2.696325
