19
Iteration:   580charge 0 multiplicity 1
 C         2.770975        -1.741350        -0.594970
 C         2.453048        -0.750214         0.545047
 O         3.281286        -0.836491         1.731040
 C         3.460562         0.344604         0.866923
 C         2.760904         1.530049         1.499174
 C         1.484181         1.311876         1.445281
 C         1.133921        -0.138603         0.900633
 C         0.081441         0.150454        -0.198307
 O         0.494085        -0.886611         1.962057
 H         1.979726        -2.541395        -0.635558
 H         2.783904        -1.220414        -1.613060
 H         3.674619        -2.250027        -0.307590
 H         4.366104         0.465584         0.309799
 H         3.230659         2.409150         2.020311
 H         0.603845         1.782905         1.876502
 H        -0.627127        -0.681751        -0.391900
 H        -0.426677         1.107703         0.007754
 H         0.698545         0.158059        -1.136106
 H         1.125939        -1.011131         2.715356
