19
Iteration:  3048charge 0 multiplicity 1
 C         2.702639        -1.614062        -0.627689
 C         2.450899        -0.576763         0.401388
 O         3.398779        -0.770474         1.582845
 C         3.479258         0.441420         0.806361
 C         2.725286         1.516043         1.660367
 C         1.404730         1.185495         1.448375
 C         1.079646        -0.173121         0.873701
 C         0.054885        -0.236053        -0.248783
 O         0.567868        -0.749035         2.152016
 H         2.141247        -1.743977        -1.558651
 H         3.792784        -1.526541        -0.936205
 H         2.516652        -2.559308        -0.009223
 H         4.411100         0.645132         0.292004
 H         3.071906         2.148116         2.460181
 H         0.681619         1.647284         2.163930
 H         0.473536         0.385894        -1.020719
 H        -0.129312        -1.313410        -0.366642
 H        -0.935381         0.063797         0.162960
 H         1.300655        -0.807470         2.783073
