19
Iteration:   367
 C         2.513782        -1.747676        -0.409307
 C         2.514059        -0.727017         0.621904
 O         3.420892        -0.740572         1.742804
 C         3.515557         0.330344         0.727879
 C         2.705900         1.458200         1.216744
 C         1.438916         1.194993         1.644303
 C         1.051783        -0.087071         1.028555
 C         0.316067         0.265681        -0.245800
 O         0.421128        -1.007873         1.863769
 H         1.888526        -2.629861        -0.102260
 H         2.236928        -1.418509        -1.422056
 H         3.581800        -2.106746        -0.420458
 H         4.445736         0.510616         0.257551
 H         3.170091         2.403256         1.396880
 H         0.802424         1.908565         2.130278
 H         0.379229        -0.432989        -1.119821
 H        -0.729530         0.483181         0.051792
 H         0.753364         1.217430        -0.631595
 H         0.883167        -1.083244         2.642767
