19
Iteration:  4013charge 0 multiplicity 1
 C         2.673368        -1.564891        -0.534480
 C         2.512831        -0.582097         0.524706
 O         3.413510        -0.714352         1.692917
 C         3.436609         0.481485         0.750236
 C         2.703720         1.616389         1.229900
 C         1.416442         1.257653         1.530319
 C         1.132361        -0.199469         1.064198
 C        -0.010016        -0.210415        -0.129350
 O         0.587243        -1.069855         2.012957
 H         2.817208        -2.589875        -0.316823
 H         1.848788        -1.442530        -1.254160
 H         3.545671        -1.277884        -1.191473
 H         4.379743         0.575398         0.222589
 H         3.225904         2.542449         1.457155
 H         0.773433         1.751799         2.273801
 H         0.561421         0.192809        -0.998705
 H        -0.483068        -1.189291        -0.154476
 H        -0.689200         0.565169         0.129730
 H         1.185197        -1.033783         2.811727
