19
Iteration:  2748
 C         2.715712        -1.659080        -0.735731
 C         2.567808        -0.616420         0.464043
 O         3.266480        -0.826766         1.783434
 C         3.500818         0.389388         0.993878
 C         2.743782         1.558783         1.540261
 C         1.441696         1.281707         1.406124
 C         1.107410        -0.110419         0.834819
 C        -0.054561        -0.090942        -0.256676
 O         0.625840        -0.884942         2.104475
 H         3.379981        -2.582914        -0.462637
 H         1.746485        -2.025901        -1.089496
 H         3.157140        -1.091231        -1.515455
 H         4.527103         0.467237         0.674901
 H         3.004959         2.519090         2.013133
 H         0.566580         1.925604         1.623756
 H         0.113483         0.794486        -0.884022
 H         0.052700        -1.065190        -0.771690
 H        -1.008366        -0.243583         0.229073
 H         1.471256        -1.210319         2.522135
