19
Iteration:  2386
 C         2.512288        -1.598028        -0.576425
 C         2.534682        -0.619664         0.565101
 O         3.344989        -0.837751         1.766062
 C         3.500988         0.391645         0.948937
 C         2.706104         1.502465         1.517914
 C         1.377225         1.258094         1.499786
 C         1.169609        -0.104487         0.857364
 C         0.227333        -0.033406        -0.271434
 O         0.544300        -0.944507         1.864822
 H         1.698827        -2.239566        -0.386749
 H         2.348281        -1.043107        -1.494553
 H         3.509289        -2.123034        -0.557911
 H         4.455229         0.545618         0.499882
 H         3.297382         2.320141         1.973481
 H         0.653753         1.776785         2.134051
 H         0.655984         0.282059        -1.224788
 H        -0.043613        -1.058242        -0.502613
 H        -0.698080         0.505448        -0.186501
 H         1.116072        -0.878519         2.655704
