19
Iteration:  1204charge 0 multiplicity 1
 C         2.416158        -1.687758        -0.433840
 C         2.524330        -0.559489         0.535179
 O         3.423987        -0.834338         1.722921
 C         3.530656         0.396479         0.902477
 C         2.713851         1.568748         1.509275
 C         1.415129         1.323362         1.553505
 C         1.108157        -0.074074         0.944738
 C         0.202813         0.097566        -0.234022
 O         0.571647        -1.135386         1.756293
 H         1.739574        -2.486622         0.016328
 H         1.985779        -1.423415        -1.491487
 H         3.354061        -2.130650        -0.692219
 H         4.530191         0.572043         0.419402
 H         3.292849         2.397804         1.900282
 H         0.590802         2.018973         1.762436
 H         0.727517         0.049024        -1.229032
 H        -0.365819        -0.930598        -0.339161
 H        -0.503381         1.025497        -0.083271
 H         1.349280        -1.224815         2.241219
