19
Iteration:  4071charge 0 multiplicity 1
 C         2.617932        -1.819083        -0.458737
 C         2.516380        -0.584130         0.506350
 O         3.546929        -0.646799         1.574657
 C         3.447392         0.553315         0.644690
 C         2.638137         1.608064         1.459136
 C         1.337056         1.108963         1.568926
 C         1.095500        -0.126445         0.944151
 C         0.015908        -0.112152        -0.170670
 O         0.658503        -0.969453         2.068499
 H         1.617849        -2.379850        -0.533234
 H         2.837203        -1.333002        -1.401823
 H         3.496197        -2.342225        -0.115900
 H         4.344092         0.692557         0.029733
 H         3.098672         2.520589         1.901669
 H         0.485483         1.603548         2.053178
 H        -0.023238         0.791924        -0.778456
 H         0.041712        -0.874578        -0.977898
 H        -0.974502        -0.216082         0.371192
 H         1.340294        -1.007424         2.731539
