19
Iteration:  2781charge 0 multiplicity 1
 C         2.739633        -1.715691        -0.519107
 C         2.396681        -0.626638         0.409672
 O         3.385835        -0.851513         1.569520
 C         3.479154         0.376117         0.898121
 C         2.707003         1.509422         1.559106
 C         1.400229         1.307603         1.573821
 C         1.086348         0.041780         0.910537
 C         0.048011        -0.166046        -0.195795
 O         0.598832        -0.842835         1.936563
 H         2.981193        -2.695326         0.090039
 H         1.996113        -1.773189        -1.290236
 H         3.592086        -1.235224        -0.899538
 H         4.430347         0.644158         0.499339
 H         3.140527         2.233563         2.263440
 H         0.519623         1.892060         1.953843
 H        -0.020610         0.644867        -0.974697
 H         0.529879        -0.927716        -0.832408
 H        -0.907114        -0.374857         0.242916
 H         1.256792        -0.881172         2.704944
