19
Iteration:  3477charge 0 multiplicity 1
 C         2.906739        -1.693595        -0.598496
 C         2.472447        -0.769099         0.502698
 O         3.490884        -0.642902         1.592530
 C         3.293260         0.450421         0.670187
 C         2.684698         1.587136         1.422560
 C         1.452929         1.128372         1.647341
 C         1.095344        -0.239703         0.963763
 C         0.057923        -0.014485        -0.067041
 O         0.405032        -0.858373         2.017244
 H         2.100173        -1.949275        -1.289035
 H         3.763576        -1.205449        -1.151308
 H         3.302915        -2.484629        -0.018838
 H         4.084037         0.655805        -0.077425
 H         3.392071         2.459645         1.540213
 H         0.750252         1.540702         2.375618
 H         0.474839         0.621438        -0.806151
 H        -0.302769        -1.001760        -0.401205
 H        -0.812765         0.564417         0.374786
 H         0.908814        -1.431732         2.701167
