19
Iteration:  3332
 C         2.706124        -1.518398        -0.718747
 C         2.546569        -0.691336         0.579334
 O         3.545750        -0.708136         1.602494
 C         3.527172         0.454926         0.800066
 C         2.671521         1.538540         1.389055
 C         1.395395         1.148116         1.469756
 C         0.989987        -0.199993         1.015050
 C        -0.032249        -0.215108        -0.113013
 O         0.537342        -0.876249         2.171482
 H         3.793848        -1.889461        -0.761331
 H         2.071528        -2.358876        -0.698634
 H         2.378229        -0.877746        -1.519050
 H         4.410410         0.649749         0.201993
 H         3.047531         2.542880         1.429991
 H         0.777654         1.934025         1.951963
 H         0.190750         0.584310        -0.902233
 H        -0.320751        -1.151177        -0.611320
 H        -1.007996         0.102705         0.233680
 H         1.241362        -1.254742         2.740455
