19
Iteration:  3376
 C         2.857026        -1.676563        -0.540514
 C         2.446234        -0.589839         0.412171
 O         3.346306        -0.796041         1.544901
 C         3.448622         0.454156         0.773638
 C         2.684037         1.595346         1.367895
 C         1.416435         1.234057         1.607448
 C         1.065155        -0.103339         0.997170
 C        -0.103980        -0.026083        -0.015409
 O         0.675102        -1.053354         2.021668
 H         3.655077        -1.235714        -1.276710
 H         3.351728        -2.479835        -0.034645
 H         1.992492        -2.047862        -1.109655
 H         4.411544         0.691418         0.291000
 H         3.123529         2.549401         1.377049
 H         0.659467         1.896771         2.062829
 H         0.363810         0.341249        -0.991704
 H        -0.309437        -1.109380        -0.108983
 H        -1.058303         0.442208         0.220734
 H         1.264420        -0.980693         2.772240
