19
Iteration:  2232charge 0 multiplicity 1
 C         2.531329        -1.626935        -0.619940
 C         2.498862        -0.672879         0.534009
 O         3.288633        -0.739699         1.721487
 C         3.484863         0.417706         0.869459
 C         2.737701         1.528458         1.520379
 C         1.397319         1.248846         1.601214
 C         1.201137        -0.080026         0.964216
 C         0.269382        -0.091502        -0.289805
 O         0.510854        -0.983153         1.903193
 H         1.646572        -2.283032        -0.670637
 H         2.813366        -1.106693        -1.536357
 H         3.370266        -2.220850        -0.346407
 H         4.428686         0.465891         0.268424
 H         3.294467         2.369381         1.908837
 H         0.624264         1.934773         1.971530
 H         0.680012         0.263968        -1.254408
 H        -0.333819        -0.981101        -0.309278
 H        -0.396232         0.746055        -0.127914
 H         1.190361        -1.174474         2.648428
