19
Iteration:  1223
 C         2.646129        -1.683416        -0.500066
 C         2.501944        -0.617664         0.539759
 O         3.447854        -0.846358         1.599043
 C         3.528255         0.447994         0.938639
 C         2.762291         1.538466         1.534865
 C         1.476080         1.239471         1.578430
 C         1.113554        -0.091880         0.942176
 C         0.088495         0.054790        -0.293160
 O         0.393461        -0.979335         1.902524
 H         1.978199        -2.485394        -0.166601
 H         2.257472        -1.326664        -1.479782
 H         3.630882        -2.031122        -0.606553
 H         4.494862         0.595369         0.433457
 H         3.093476         2.530829         1.685625
 H         0.611488         1.766121         2.068813
 H         0.542988        -0.120768        -1.249120
 H        -0.600250        -0.756473        -0.318846
 H        -0.294584         0.958031        -0.247037
 H         0.985285        -1.438907         2.466668
