19
Iteration:  2315
 C         2.903835        -1.849065        -0.373294
 C         2.502671        -0.667198         0.522598
 O         3.386865        -0.737252         1.644291
 C         3.462264         0.386540         0.797700
 C         2.830857         1.517178         1.441528
 C         1.532393         1.146276         1.650329
 C         0.999425        -0.026369         0.908771
 C         0.028286         0.265714        -0.234605
 O         0.275202        -1.014760         1.839024
 H         3.056002        -2.753161         0.275648
 H         2.118373        -2.065588        -1.153739
 H         3.826431        -1.526656        -0.790285
 H         4.487085         0.550698         0.361280
 H         3.257868         2.470902         1.665029
 H         0.820232         1.592619         2.384188
 H         0.323450         1.014421        -0.950984
 H        -0.127703        -0.534648        -1.002353
 H        -0.983798         0.461041         0.135002
 H         1.063348        -1.321601         2.281625
