19
Iteration:  3758charge 0 multiplicity 1
 C         2.795891        -1.640339        -0.645794
 C         2.461505        -0.710758         0.531468
 O         3.406725        -0.655062         1.601852
 C         3.405939         0.453326         0.641120
 C         2.683088         1.659806         1.268264
 C         1.418265         1.287649         1.600145
 C         1.116485        -0.212212         1.050103
 C         0.076687        -0.107631         0.015681
 O         0.519647        -1.078855         2.100310
 H         2.235103        -2.666483        -0.879550
 H         2.902367        -1.033649        -1.619874
 H         3.789963        -2.095953        -0.525793
 H         4.199870         0.665214        -0.021567
 H         3.198472         2.632362         1.382587
 H         0.602746         1.728504         2.207320
 H         0.285790         0.729371        -0.626071
 H        -0.201023        -0.991717        -0.640384
 H        -0.898829         0.261847         0.528808
 H         1.128557        -1.113501         2.929440
