19
Iteration:  3555charge 0 multiplicity 1
 C         2.503929        -1.677488        -0.513712
 C         2.557612        -0.574106         0.446724
 O         3.364033        -0.724894         1.651037
 C         3.471119         0.508427         0.784830
 C         2.648195         1.637522         1.419670
 C         1.378582         1.187429         1.602625
 C         1.073797        -0.123725         0.963139
 C         0.116614        -0.120312        -0.200631
 O         0.753518        -1.040357         1.986634
 H         1.832556        -1.259026        -1.164348
 H         3.391923        -2.132702        -1.001896
 H         1.848430        -2.389619         0.040845
 H         4.498178         0.552745         0.550476
 H         3.187448         2.504625         1.691165
 H         0.709337         1.783879         2.244700
 H         0.601828         0.498001        -0.937636
 H         0.036533        -1.111967        -0.650263
 H        -0.914966         0.216010         0.036416
 H         1.495786        -1.334404         2.452744
