19
Iteration:  3662
 C         2.588804        -1.558933        -0.594113
 C         2.467175        -0.574381         0.496680
 O         3.447064        -0.810823         1.649925
 C         3.363649         0.467736         0.806779
 C         2.648007         1.633487         1.349325
 C         1.383133         1.282943         1.569918
 C         1.100722        -0.134867         0.974979
 C         0.085744        -0.224619        -0.124497
 O         0.730715        -1.003127         2.084781
 H         3.310668        -2.296823        -0.501473
 H         1.699587        -2.142819        -0.951838
 H         2.842916        -1.164665        -1.558182
 H         4.142889         0.622355         0.111419
 H         3.271894         2.469335         1.597151
 H         0.633177         1.938448         2.054716
 H         0.573207         0.196106        -0.960989
 H        -0.050581        -1.293119        -0.299633
 H        -0.866134         0.333787        -0.043314
 H         1.515310        -1.200950         2.554964
