19
Iteration:   852
 C         2.612208        -1.565138        -0.537934
 C         2.445416        -0.721919         0.681655
 O         3.410324        -0.931507         1.727474
 C         3.501552         0.268432         0.970766
 C         2.764529         1.527395         1.335061
 C         1.481259         1.270833         1.521568
 C         1.101468        -0.110960         0.929454
 C         0.158528         0.099849        -0.317615
 O         0.447055        -0.928270         1.954829
 H         2.164247        -2.585689        -0.494779
 H         2.315724        -0.948843        -1.402338
 H         3.748023        -1.714788        -0.658410
 H         4.321970         0.358527         0.202165
 H         3.261505         2.514576         1.337619
 H         0.778734         2.125556         1.782939
 H        -0.974510         0.150925        -0.014462
 H         0.402485         1.108891        -0.830001
 H         0.278571        -0.766314        -1.087177
 H         0.765190        -0.589598         2.761197
