19
Iteration:   221
 C         2.854833        -1.621064        -0.748129
 C         2.507809        -0.690350         0.481893
 O         3.352295        -0.876923         1.758662
 C         3.509464         0.263986         0.935662
 C         2.846994         1.406332         1.451151
 C         1.505564         1.334130         1.326279
 C         1.034368        -0.100907         0.903257
 C        -0.117631        -0.076155        -0.058520
 O         0.431091        -0.681158         2.036781
 H         2.122005        -2.359751        -0.987223
 H         3.310589        -1.087374        -1.568563
 H         3.683501        -2.240931        -0.404863
 H         4.581345         0.366563         0.551489
 H         3.218213         2.192480         2.041854
 H         0.741835         1.903184         1.788327
 H        -0.231840        -0.949603        -0.684048
 H        -1.043998         0.006536         0.492862
 H        -0.074998         0.798063        -0.673511
 H         1.018937        -0.755796         2.716424
