19
Iteration:   458
 C         2.964011        -1.724727        -0.633271
 C         2.553533        -0.705982         0.487131
 O         3.223974        -0.850073         1.725291
 C         3.536789         0.296532         0.944149
 C         2.798829         1.468339         1.461558
 C         1.479847         1.362653         1.400534
 C         1.046183         0.020993         0.867142
 C        -0.131969         0.069773        -0.055131
 O         0.454874        -0.910624         1.947869
 H         2.192763        -2.522324        -0.708209
 H         3.109011        -1.276117        -1.662066
 H         3.913456        -2.203871        -0.276756
 H         4.590568         0.199189         0.622346
 H         3.235338         2.366876         1.828850
 H         0.745382         2.092868         1.764369
 H        -0.736333        -0.848290         0.096223
 H        -0.723287         1.039966        -0.096872
 H         0.288208        -0.108080        -1.087612
 H         1.108874        -0.887176         2.582443
