19
Iteration:  3549
 C         2.487851        -1.689175        -0.539997
 C         2.547889        -0.563859         0.517160
 O         3.401645        -0.774608         1.687612
 C         3.443003         0.525344         0.742662
 C         2.651513         1.626983         1.415725
 C         1.367318         1.245711         1.601484
 C         1.135248        -0.130245         0.969652
 C         0.104931        -0.119470        -0.201698
 O         0.728446        -1.074828         1.940502
 H         1.547834        -1.304271        -1.099569
 H         3.387914        -1.968954        -1.055990
 H         2.080459        -2.475532         0.137270
 H         4.518032         0.665881         0.443184
 H         3.162582         2.570945         1.715198
 H         0.609328         1.748463         2.199646
 H         0.572571         0.564786        -0.975730
 H         0.039635        -1.157957        -0.545414
 H        -0.846619         0.358634         0.003722
 H         1.560363        -1.023808         2.563666
