19
Iteration:  2028
 C         2.574438        -1.757823        -0.455930
 C         2.424982        -0.624316         0.614555
 O         3.518795        -0.706693         1.692004
 C         3.489994         0.393698         0.810254
 C         2.665292         1.570492         1.323602
 C         1.438840         1.169267         1.653341
 C         1.089226        -0.098025         1.040401
 C         0.296076         0.279194        -0.204015
 O         0.356660        -1.186804         1.771829
 H         1.988887        -2.573451        -0.106543
 H         2.520318        -1.483401        -1.497244
 H         3.578891        -2.190654        -0.236184
 H         4.490786         0.370870         0.305469
 H         3.048641         2.585488         1.378491
 H         0.752118         1.914622         2.097920
 H         1.080852         0.618704        -0.891859
 H        -0.366268        -0.512051        -0.531326
 H        -0.464169         1.067795         0.094901
 H         1.171073        -1.563629         2.076679
