19
Iteration:  2570
 C         2.796778        -1.765309        -0.501993
 C         2.523529        -0.751947         0.536595
 O         3.345634        -0.777470         1.717725
 C         3.465776         0.341028         0.860092
 C         2.700067         1.559638         1.392466
 C         1.416674         1.318089         1.601097
 C         1.089723        -0.065385         0.975106
 C         0.143070         0.221464        -0.135116
 O         0.435416        -1.077952         1.788900
 H         2.095170        -1.930777        -1.252457
 H         3.756356        -1.516385        -0.971851
 H         3.050592        -2.792334        -0.068436
 H         4.435761         0.554058         0.305830
 H         3.015002         2.611626         1.384855
 H         0.518027         1.951550         1.895929
 H         0.502973         0.839109        -0.975047
 H        -0.162279        -0.729343        -0.573396
 H        -0.746926         0.646992         0.361959
 H         0.966908        -1.111952         2.546665
