19
Iteration:   629
 C         2.508209        -1.726680        -0.368639
 C         2.491710        -0.640670         0.648737
 O         3.348064        -0.781025         1.827252
 C         3.483775         0.363752         0.799480
 C         2.811739         1.573110         1.313509
 C         1.512971         1.303716         1.573976
 C         1.120485        -0.075995         0.962577
 C         0.216026         0.175788        -0.224068
 O         0.458312        -1.162037         1.674875
 H         1.948222        -2.603623        -0.125546
 H         1.993336        -1.218236        -1.144305
 H         3.530890        -1.989263        -0.689891
 H         4.471456         0.345526         0.244445
 H         3.261745         2.566993         1.546177
 H         0.913214         2.131105         2.050904
 H        -0.361040        -0.728544        -0.330928
 H        -0.470619         0.985914         0.035238
 H         0.700775         0.376451        -1.173095
 H         0.930812        -1.328239         2.582635
