19
Iteration:  4865
 C         2.840903        -1.676003        -0.564014
 C         2.526590        -0.625045         0.430511
 O         3.449685        -0.874470         1.569128
 C         3.468431         0.422685         0.859153
 C         2.655761         1.573196         1.303516
 C         1.347887         1.305213         1.443959
 C         1.032794        -0.090968         1.013658
 C        -0.016672        -0.129487        -0.007481
 O         0.533787        -0.844140         2.103779
 H         3.648798        -2.373457        -0.185841
 H         1.929636        -2.427125        -0.606254
 H         3.097362        -1.134911        -1.507003
 H         4.467556         0.594263         0.390703
 H         3.123329         2.493454         1.543967
 H         0.573361         2.025744         1.697427
 H         0.410380         0.456763        -0.901873
 H        -0.043929        -1.189137        -0.413227
 H        -0.963180         0.132000         0.579051
 H         1.310733        -1.297403         2.384106
