19
Iteration:  2855
 C         2.647971        -1.701721        -0.587506
 C         2.468972        -0.688043         0.640076
 O         3.340819        -0.759367         1.683409
 C         3.451878         0.550526         0.751936
 C         2.681818         1.702300         1.242425
 C         1.445189         1.274553         1.691946
 C         1.060006        -0.122997         1.081884
 C         0.205784         0.055899        -0.183227
 O         0.579262        -1.255389         1.882809
 H         1.669395        -2.088696        -0.921380
 H         3.185438        -1.096796        -1.289726
 H         3.240393        -2.506359        -0.267283
 H         4.512608         0.469139         0.458045
 H         3.071747         2.695358         1.521842
 H         0.600452         1.938688         2.074509
 H         0.805801         0.094296        -1.113779
 H        -0.474436        -0.838538        -0.276028
 H        -0.388296         0.985151        -0.197654
 H         1.074972        -1.137915         2.800512
