19
Iteration:  3851
 C         2.763336        -1.713951        -0.543240
 C         2.507639        -0.544147         0.449256
 O         3.327468        -0.696546         1.634681
 C         3.481813         0.537636         0.754361
 C         2.699552         1.643240         1.355069
 C         1.473089         1.127062         1.553399
 C         1.077361        -0.148334         0.922591
 C        -0.089472        -0.141753        -0.052140
 O         0.649394        -1.001454         2.047608
 H         2.688317        -2.669769         0.036600
 H         2.005739        -1.641695        -1.384599
 H         3.824959        -1.753801        -0.931427
 H         4.512300         0.580864         0.296974
 H         3.157543         2.476559         1.832491
 H         0.525334         1.500470         2.026188
 H         0.359144         0.302074        -0.995096
 H        -0.656471        -1.047181        -0.306586
 H        -0.897815         0.544923         0.144557
 H         1.453256        -1.103017         2.589743
