19
Iteration:  3369charge 0 multiplicity 1
 C         2.894966        -1.667850        -0.599049
 C         2.485113        -0.638315         0.468968
 O         3.345173        -0.795974         1.510332
 C         3.414971         0.471295         0.791062
 C         2.679881         1.543450         1.328835
 C         1.390099         1.266451         1.544167
 C         1.054928        -0.091846         1.079603
 C        -0.050349        -0.075924         0.025294
 O         0.627878        -1.006647         2.000948
 H         3.641793        -1.245770        -1.164839
 H         3.286376        -2.590779        -0.125682
 H         2.189725        -1.943364        -1.353493
 H         4.385056         0.616884         0.266502
 H         3.020928         2.582149         1.552232
 H         0.678184         1.743301         2.196058
 H         0.371148         0.423456        -0.797938
 H        -0.387461        -1.091828        -0.207173
 H        -0.856790         0.543238         0.482510
 H         1.224689        -0.753283         2.796900
