19
Iteration:  4848
 C         2.732773        -1.675179        -0.677458
 C         2.478442        -0.676187         0.511529
 O         3.360501        -0.839379         1.625798
 C         3.436781         0.418246         0.845851
 C         2.681363         1.623006         1.509092
 C         1.395086         1.313722         1.378050
 C         1.116457        -0.115764         0.928076
 C         0.001256        -0.270635        -0.140835
 O         0.679951        -0.759584         2.170841
 H         3.521051        -2.295290        -0.283206
 H         1.932097        -2.246038        -0.995059
 H         3.033956        -1.162104        -1.584762
 H         4.324246         0.574531         0.270065
 H         3.238397         2.513619         1.873153
 H         0.571946         1.943772         1.806028
 H         0.086587         0.231889        -1.071550
 H        -0.355836        -1.240837        -0.475425
 H        -0.982744        -0.044022         0.236843
 H         1.441202        -0.959549         2.730397
