19
Iteration:  3231charge 0 multiplicity 1
 C         2.856452        -1.673985        -0.716466
 C         2.534983        -0.645733         0.383289
 O         3.473788        -0.716357         1.645026
 C         3.454687         0.468278         0.837045
 C         2.677731         1.623021         1.356218
 C         1.385010         1.275814         1.470258
 C         1.003810        -0.156808         1.041703
 C        -0.068115        -0.031398         0.024740
 O         0.539550        -1.101849         2.078607
 H         3.863469        -1.504646        -0.936645
 H         2.811997        -2.673986        -0.144076
 H         2.404932        -1.539997        -1.751222
 H         4.352489         0.501046         0.221394
 H         3.224054         2.526499         1.667587
 H         0.761255         1.982599         1.961702
 H         0.200700        -0.072276        -1.047385
 H        -0.651321        -1.002094         0.075851
 H        -0.838525         0.775705         0.240384
 H         1.083625        -1.080196         2.871516
