19
Iteration:  2835
 C         2.666408        -1.607344        -0.611089
 C         2.502351        -0.682712         0.510706
 O         3.413108        -0.688353         1.813897
 C         3.456318         0.391453         0.857582
 C         2.643104         1.570115         1.271707
 C         1.389535         1.203623         1.614108
 C         1.168478        -0.192112         1.007698
 C         0.164959         0.064939        -0.130807
 O         0.531008        -1.089442         1.874549
 H         1.703735        -2.243413        -0.607480
 H         2.840654        -1.114068        -1.538674
 H         3.424337        -2.315776        -0.417418
 H         4.196003         0.567976         0.095895
 H         2.983906         2.602791         1.210624
 H         0.703497         1.845388         2.225388
 H         0.569102         0.463823        -1.102745
 H        -0.452310        -0.849914        -0.335437
 H        -0.608704         0.800320         0.098875
 H         1.204409        -1.160588         2.621519
