19
Iteration:  4580charge 0 multiplicity 1
 C         2.576337        -1.713492        -0.580189
 C         2.506578        -0.597790         0.495455
 O         3.436197        -0.745276         1.599656
 C         3.456908         0.465436         0.835626
 C         2.684129         1.621789         1.371440
 C         1.404539         1.380513         1.514619
 C         1.114535        -0.141514         0.953849
 C         0.041780        -0.215460        -0.100300
 O         0.672990        -0.988626         2.063561
 H         2.396685        -2.698841        -0.185713
 H         1.803824        -1.683493        -1.342747
 H         3.530032        -1.824536        -1.060527
 H         4.342187         0.691282         0.259207
 H         3.224423         2.574905         1.550558
 H         0.496264         1.863691         1.920224
 H         0.012778         0.688371        -0.852666
 H         0.079393        -1.181844        -0.641330
 H        -0.899526        -0.130237         0.590158
 H         1.417192        -1.013364         2.764266
