19
Iteration:   403
 C         2.427708        -1.849194        -0.529122
 C         2.496436        -0.646672         0.564441
 O         3.447713        -0.827495         1.629588
 C         3.436156         0.495688         0.816091
 C         2.762234         1.574627         1.501930
 C         1.381127         1.378166         1.554159
 C         1.135492        -0.116165         1.013822
 C         0.370393        -0.007887        -0.306759
 O         0.439243        -0.946714         1.956985
 H         1.407245        -2.279227        -0.471341
 H         2.606067        -1.511645        -1.563966
 H         3.192303        -2.683464        -0.299849
 H         4.491409         0.520434         0.418782
 H         3.282116         2.420936         2.023371
 H         0.628555         2.048416         2.040256
 H        -0.243723        -0.897052        -0.592215
 H        -0.375803         0.866932        -0.284400
 H         1.150966         0.397964        -0.983164
 H         1.113656        -1.304116         2.452224
