19
Iteration:   909charge 0 multiplicity 1
 C         2.687540        -1.811621        -0.325371
 C         2.484667        -0.615046         0.478083
 O         3.337418        -0.857829         1.689537
 C         3.533577         0.398684         0.833635
 C         2.777057         1.485625         1.547240
 C         1.479708         1.264317         1.621119
 C         1.068345         0.010800         0.844763
 C        -0.074562         0.231728        -0.275648
 O         0.573353        -1.024153         1.765580
 H         2.087532        -2.697080         0.030257
 H         2.427976        -1.789558        -1.382080
 H         3.810559        -2.092276        -0.224824
 H         4.498481         0.501042         0.385809
 H         3.269252         2.369338         1.908138
 H         0.900955         1.954052         2.158524
 H        -0.427182         1.338877        -0.401920
 H         0.396129        -0.192669        -1.240423
 H        -0.937711        -0.412964         0.042323
 H         1.482868        -1.308520         2.248601
