19
Iteration:  3872charge 0 multiplicity 1
 C         2.826680        -1.662591        -0.631138
 C         2.490939        -0.728407         0.512919
 O         3.401893        -0.703924         1.670833
 C         3.400823         0.409963         0.757946
 C         2.644327         1.584421         1.339575
 C         1.376982         1.341763         1.436264
 C         1.093339        -0.185793         0.975456
 C         0.007236        -0.049070        -0.024480
 O         0.608108        -1.044833         2.092323
 H         3.169387        -2.596430        -0.200098
 H         1.904153        -1.602911        -1.296127
 H         3.691696        -1.214807        -1.224737
 H         4.403601         0.635222         0.261477
 H         3.111099         2.519030         1.555349
 H         0.611131         2.020249         1.950064
 H         0.274936         0.596371        -0.912760
 H        -0.322543        -1.050145        -0.308917
 H        -0.909523         0.326381         0.427585
 H         1.382145        -1.048373         2.640302
