19
Iteration:  2445
 C         2.962362        -1.621109        -0.622646
 C         2.525326        -0.727733         0.560532
 O         3.171710        -0.898025         1.769573
 C         3.466587         0.357948         0.936119
 C         2.769520         1.540723         1.444925
 C         1.448204         1.235723         1.475237
 C         1.106679        -0.156822         0.776082
 C        -0.135256         0.088354        -0.106680
 O         0.577061        -0.844111         1.914047
 H         2.267132        -2.127726        -1.385561
 H         3.693362        -1.036857        -1.262510
 H         3.567828        -2.468920        -0.320628
 H         4.525958         0.246967         0.592744
 H         3.176111         2.344460         2.035622
 H         0.610474         1.901044         1.662941
 H         0.054447         0.968382        -0.777557
 H        -0.257230        -0.867039        -0.744131
 H        -1.059736         0.143482         0.591789
 H         1.272624        -0.705335         2.605776
