19
Iteration:  4233
 C         2.689524        -1.585486        -0.612211
 C         2.557755        -0.651700         0.463173
 O         3.440799        -0.764806         1.690050
 C         3.418013         0.431481         0.847963
 C         2.594308         1.624433         1.257131
 C         1.312579         1.274228         1.432714
 C         1.096738        -0.178974         1.003033
 C        -0.064924        -0.202002         0.017459
 O         0.774821        -0.940162         2.056643
 H         2.545481        -1.073573        -1.526967
 H         3.643547        -1.832608        -0.903734
 H         2.101283        -2.447592        -0.634627
 H         4.335185         0.447131         0.190302
 H         3.010969         2.560840         1.520080
 H         0.549352         1.789866         1.996839
 H         0.134575         0.505936        -0.739914
 H         0.040775        -1.107547        -0.567041
 H        -0.967940        -0.068240         0.604551
 H         1.475168        -0.904920         2.704921
