19
Iteration:  3123charge 0 multiplicity 1
 C         2.728429        -1.781145        -0.613428
 C         2.520040        -0.652778         0.466319
 O         3.377278        -0.540515         1.804193
 C         3.464382         0.466676         0.766141
 C         2.732286         1.611044         1.332324
 C         1.500708         1.194507         1.594667
 C         1.050349        -0.076752         0.984308
 C        -0.069694         0.056686        -0.056572
 O         0.584288        -1.212902         1.864376
 H         2.836295        -1.388985        -1.583867
 H         3.681264        -2.368260        -0.432702
 H         1.879227        -2.510931        -0.489343
 H         4.442172         0.374617         0.319446
 H         3.227752         2.555013         1.457779
 H         0.733509         1.804652         2.106503
 H         0.338088         0.580501        -0.957035
 H        -0.372117        -1.021618        -0.202840
 H        -0.948298         0.674870         0.361667
 H         1.240164        -1.327686         2.536352
