19
Iteration:  4454charge 0 multiplicity 1
 C         2.495461        -1.744810        -0.674863
 C         2.563481        -0.639993         0.481299
 O         3.401412        -0.654647         1.632812
 C         3.429176         0.556585         0.703345
 C         2.642696         1.650976         1.342951
 C         1.401434         1.275857         1.505062
 C         1.088351        -0.143747         1.027321
 C         0.083437        -0.261624        -0.020201
 O         0.747087        -0.963568         2.115972
 H         2.791939        -1.286421        -1.663585
 H         3.290277        -2.537265        -0.457752
 H         1.679780        -2.490977        -0.878614
 H         4.398712         0.677145         0.283719
 H         3.229046         2.395827         1.932121
 H         0.535468         1.723618         2.048925
 H         0.319494         0.663745        -0.666190
 H         0.039616        -1.360406        -0.495522
 H        -1.058782        -0.069726         0.256130
 H         1.516139        -1.000019         2.780452
