19
Iteration:  4092charge 0 multiplicity 1
 C         2.666177        -1.753210        -0.491689
 C         2.509192        -0.567676         0.457200
 O         3.421243        -0.596599         1.574206
 C         3.453205         0.512222         0.744577
 C         2.727045         1.659644         1.328551
 C         1.392547         1.269605         1.547017
 C         1.044139        -0.150369         1.045156
 C         0.025372        -0.169336        -0.094580
 O         0.635399        -1.158301         2.011298
 H         1.518543        -1.980347        -0.582748
 H         3.072192        -1.568917        -1.468792
 H         3.131867        -2.525528         0.124081
 H         4.374293         0.661905         0.179466
 H         3.312013         2.572084         1.647795
 H         0.735519         1.894053         2.171582
 H         0.216258         0.784517        -0.653122
 H         0.086413        -1.008122        -0.846569
 H        -0.993376        -0.112789         0.409922
 H         1.391906        -1.114282         2.708437
