19
Iteration:  4854
 C         2.773142        -1.675482        -0.623954
 C         2.484951        -0.682566         0.503868
 O         3.384709        -0.855283         1.574764
 C         3.456872         0.395648         0.855989
 C         2.675834         1.636318         1.453144
 C         1.363239         1.337651         1.440903
 C         1.124738        -0.111937         0.932360
 C        -0.022364        -0.245084        -0.113756
 O         0.635126        -0.773192         2.160019
 H         3.650269        -2.300188        -0.302920
 H         1.881263        -2.319688        -0.983049
 H         3.125175        -1.233140        -1.583890
 H         4.374037         0.500978         0.232142
 H         3.064184         2.563566         1.810454
 H         0.481757         1.939225         1.607171
 H         0.109317         0.485622        -0.992462
 H        -0.122257        -1.340743        -0.366280
 H        -0.988174         0.177820         0.315116
 H         1.392713        -1.133982         2.628966
