19
Iteration:   813
 C         2.679075        -1.651924        -0.658787
 C         2.529902        -0.705110         0.465633
 O         3.379979        -0.900674         1.631456
 C         3.532411         0.378737         0.964369
 C         2.820658         1.482506         1.584126
 C         1.497609         1.235750         1.534132
 C         1.116691        -0.053231         0.893380
 C         0.118495        -0.160742        -0.274139
 O         0.306449        -0.622453         2.029982
 H         1.838950        -2.338630        -0.774214
 H         2.806087        -1.272631        -1.654295
 H         3.502494        -2.353437        -0.395107
 H         4.510637         0.486331         0.546740
 H         3.185269         2.404155         1.998085
 H         0.772390         1.895137         1.924901
 H        -0.588137        -0.876541         0.054793
 H        -0.355384         0.793028        -0.335766
 H         0.467696        -0.483737        -1.220043
 H         0.896212        -1.054472         2.667509
