19
Iteration:  4217charge 0 multiplicity 1
 C         2.598224        -1.583279        -0.709092
 C         2.469601        -0.606864         0.536845
 O         3.452362        -0.654020         1.664577
 C         3.457293         0.499290         0.740620
 C         2.715231         1.579507         1.396723
 C         1.371582         1.258317         1.399292
 C         1.125018        -0.171435         0.996422
 C         0.015692        -0.316704        -0.097900
 O         0.669591        -0.999377         2.179517
 H         2.527780        -0.969111        -1.670460
 H         3.554656        -2.213983        -0.485869
 H         1.731852        -2.332382        -0.538819
 H         4.391894         0.709575         0.268835
 H         3.118318         2.527172         1.851631
 H         0.534752         1.893252         1.748292
 H         0.117902         0.523237        -0.883921
 H         0.021190        -1.270560        -0.676317
 H        -0.931688        -0.273643         0.493147
 H         1.517243        -0.909540         2.735756
