19
Iteration:   861charge 0 multiplicity 1
 C         2.684701        -1.627209        -0.523062
 C         2.480694        -0.701415         0.607173
 O         3.316007        -0.909453         1.748400
 C         3.578807         0.313505         0.952398
 C         2.786026         1.552994         1.298945
 C         1.458054         1.229184         1.542404
 C         1.068739        -0.108641         0.982935
 C         0.127314         0.157399        -0.269687
 O         0.462782        -0.939503         1.897785
 H         2.125846        -2.559350        -0.452561
 H         2.203849        -1.189789        -1.429122
 H         3.685637        -1.875935        -0.751579
 H         4.557807         0.325684         0.382184
 H         3.274575         2.560412         1.293208
 H         0.573351         1.862637         1.893552
 H        -0.884561         0.403542         0.121574
 H         0.547142         0.949117        -0.908912
 H        -0.000307        -0.804723        -0.830598
 H         0.803635        -0.754039         2.755204
