19
Iteration:  1124charge 0 multiplicity 1
 C         2.869040        -1.669901        -0.604301
 C         2.499202        -0.798490         0.578898
 O         3.523072        -0.846937         1.670806
 C         3.428581         0.332834         0.817546
 C         2.798125         1.451142         1.503213
 C         1.513145         1.295434         1.533363
 C         1.044375        -0.062829         1.024922
 C         0.008471         0.092390        -0.196980
 O         0.244633        -0.845299         1.923481
 H         2.391967        -2.636262        -0.585442
 H         2.579276        -1.164504        -1.483964
 H         4.000716        -1.778580        -0.552987
 H         4.173419         0.435424         0.055872
 H         3.332531         2.415382         1.795186
 H         0.730967         2.030564         1.762305
 H        -0.078519         1.085688        -0.633341
 H         0.272289        -0.612049        -1.020497
 H        -0.933989        -0.177535         0.137942
 H         0.873026        -1.080120         2.640503
