19
Iteration:   963charge 0 multiplicity 1
 C         2.564140        -1.689012        -0.638840
 C         2.528079        -0.689414         0.539986
 O         3.449066        -0.793275         1.710520
 C         3.439321         0.377306         0.831133
 C         2.725307         1.573065         1.484544
 C         1.417627         1.275081         1.661599
 C         1.126507        -0.123689         1.017343
 C         0.307836         0.045184        -0.266391
 O         0.361655        -0.949301         1.888784
 H         1.922144        -2.531869        -0.296053
 H         2.119692        -1.239540        -1.525821
 H         3.576384        -2.023707        -1.045114
 H         4.389824         0.483507         0.361740
 H         3.240941         2.453707         1.903392
 H         0.657266         1.841620         2.164186
 H         1.146702         0.146919        -1.055510
 H        -0.366058        -0.875212        -0.406395
 H        -0.409989         0.908167        -0.338816
 H         1.003055        -1.371062         2.599505
