19
Iteration:  1194charge 0 multiplicity 1
 C         2.405007        -1.754112        -0.467122
 C         2.497438        -0.623147         0.520913
 O         3.357438        -0.809175         1.775930
 C         3.457563         0.434606         0.891034
 C         2.769392         1.590837         1.498345
 C         1.408069         1.341741         1.513516
 C         1.172530        -0.012340         0.905622
 C         0.222126         0.131011        -0.240131
 O         0.662343        -1.195475         1.761450
 H         1.669083        -2.466581         0.027372
 H         1.847307        -1.299357        -1.377988
 H         3.331586        -2.273331        -0.681909
 H         4.484874         0.512769         0.462308
 H         3.216971         2.445299         2.020693
 H         0.607984         1.803582         2.101367
 H         0.750337         0.537404        -1.197734
 H        -0.297329        -0.935413        -0.338406
 H        -0.727469         0.892286        -0.086791
 H         1.183616        -1.316514         2.500879
