19
Iteration:  2836
 C         2.665224        -1.603381        -0.606912
 C         2.506896        -0.683693         0.508986
 O         3.411940        -0.690833         1.816046
 C         3.443034         0.386360         0.853604
 C         2.641452         1.575777         1.267421
 C         1.390928         1.209173         1.624981
 C         1.172173        -0.189578         1.014917
 C         0.161661         0.061433        -0.132352
 O         0.536764        -1.093299         1.868363
 H         1.692699        -2.243791        -0.638533
 H         2.853825        -1.125076        -1.545361
 H         3.421400        -2.345013        -0.421527
 H         4.183358         0.594781         0.119141
 H         3.006335         2.589348         1.176610
 H         0.718910         1.855094         2.222049
 H         0.604268         0.458354        -1.097669
 H        -0.472245        -0.830381        -0.338747
 H        -0.604894         0.808625         0.053807
 H         1.204734        -1.161656         2.656906
