19
Iteration:  4325charge 0 multiplicity 1
 C         2.522272        -1.712186        -0.537716
 C         2.480430        -0.623951         0.444391
 O         3.575897        -0.631930         1.507040
 C         3.461271         0.574210         0.755609
 C         2.628812         1.593586         1.427090
 C         1.316085         1.252694         1.485682
 C         1.139754        -0.197041         1.011301
 C         0.186339        -0.199749        -0.089576
 O         0.567811        -1.004064         2.165065
 H         1.678348        -1.906130        -1.163814
 H         3.260031        -1.466342        -1.254882
 H         2.612995        -2.628394        -0.037509
 H         4.276823         0.800981         0.163224
 H         3.101848         2.462624         1.849736
 H         0.561212         1.855312         1.986761
 H         0.499406         0.230704        -1.080224
 H         0.035627        -1.173714        -0.518489
 H        -0.775135         0.301925         0.027813
 H         1.198055        -1.411542         2.812880
