19
Iteration:   518charge 0 multiplicity 1
 C         2.573320        -1.526924        -0.736945
 C         2.475971        -0.700912         0.534209
 O         3.235470        -0.940636         1.767991
 C         3.529078         0.232621         1.072962
 C         2.785622         1.529109         1.583709
 C         1.519344         1.356751         1.373424
 C         1.158147        -0.041464         0.869133
 C         0.148686        -0.223035        -0.283599
 O         0.505030        -0.690658         2.028093
 H         2.130637        -2.499845        -0.528407
 H         2.060997        -1.093913        -1.541960
 H         3.586955        -1.725797        -1.093727
 H         4.477057         0.236215         0.493777
 H         3.385989         2.363557         1.973656
 H         0.777777         2.142093         1.500198
 H         0.340242        -1.137476        -0.816725
 H        -0.855147        -0.296586         0.041802
 H         0.238312         0.626729        -0.918717
 H         1.282403        -0.892315         2.707258
