19
Iteration:  2273charge 0 multiplicity 1
 C         2.589129        -1.775272        -0.369087
 C         2.472411        -0.626180         0.538636
 O         3.432554        -0.788280         1.694828
 C         3.500466         0.399238         0.872331
 C         2.704639         1.537920         1.437641
 C         1.381681         1.239410         1.596880
 C         1.128633        -0.109244         0.952137
 C         0.204259         0.235501        -0.271036
 O         0.497561        -1.070922         1.764134
 H         2.087730        -2.717703         0.027895
 H         2.009024        -1.647710        -1.326080
 H         3.565372        -2.026621        -0.677977
 H         4.562168         0.575956         0.478395
 H         3.047073         2.549025         1.537086
 H         0.597811         1.984117         1.903113
 H         0.477254         1.116571        -0.923922
 H         0.205593        -0.744581        -0.802086
 H        -0.697554         0.229206         0.334683
 H         1.050803        -1.257562         2.510896
