19
Iteration:  3418
 C         2.409341        -1.712258        -0.480740
 C         2.634168        -0.624177         0.505967
 O         3.437207        -0.666855         1.657961
 C         3.477870         0.537798         0.761159
 C         2.628634         1.598714         1.445397
 C         1.343335         1.226117         1.545059
 C         1.195363        -0.107802         0.946397
 C         0.104200        -0.075314        -0.076697
 O         0.702811        -1.110624         1.870668
 H         2.116909        -1.257184        -1.515996
 H         3.297406        -2.332249        -0.654825
 H         1.556310        -2.409731        -0.149435
 H         4.458506         0.607022         0.317461
 H         2.992259         2.484660         1.881593
 H         0.426993         1.698049         1.927693
 H         0.399553         0.475517        -1.042661
 H        -0.102560        -1.135671        -0.303803
 H        -0.797434         0.362987         0.343110
 H         1.469330        -1.035277         2.475248
