19
Iteration:  4826
 C         2.587989        -1.511479        -0.683862
 C         2.521797        -0.602592         0.472474
 O         3.264414        -0.746849         1.737887
 C         3.568582         0.319409         0.861891
 C         2.682566         1.487435         1.456019
 C         1.366149         1.310044         1.370753
 C         1.098112        -0.105808         0.866391
 C         0.030886        -0.414508        -0.113691
 O         0.779719        -0.736813         2.146839
 H         3.367815        -2.257813        -0.647800
 H         1.680237        -1.952185        -0.861596
 H         2.647324        -1.033366        -1.662643
 H         4.550445         0.397454         0.454622
 H         3.092372         2.157029         2.220889
 H         0.546218         1.992896         1.694039
 H         0.402988        -0.041996        -1.048852
 H        -0.236458        -1.470935        -0.223314
 H        -0.980738        -0.041959        -0.103516
 H         1.516334        -0.658191         2.767914
