19
Iteration:    76charge 0 multiplicity 1
 C         2.731047        -1.946905        -0.373445
 C         2.465063        -0.674743         0.490378
 O         3.361106        -0.716649         1.614629
 C         3.385635         0.439613         0.665156
 C         2.680576         1.580188         1.360172
 C         1.460558         1.183060         1.717717
 C         1.068749        -0.131941         0.959391
 C         0.271517         0.263838        -0.216021
 O         0.407060        -0.990806         1.914005
 H         2.234729        -2.842270         0.033023
 H         2.357198        -1.836809        -1.396617
 H         3.813099        -2.047436        -0.363903
 H         4.354652         0.546121         0.274637
 H         3.229342         2.424980         1.788852
 H         0.860252         1.553786         2.524991
 H         0.056755        -0.572518        -0.857851
 H        -0.568161         0.906351        -0.061364
 H         0.957732         0.915322        -0.757393
 H         1.204092        -1.152225         2.608605
