19
Iteration:  3966charge 0 multiplicity 1
 C         2.748630        -1.651576        -0.551107
 C         2.500232        -0.556420         0.472227
 O         3.372940        -0.797350         1.553231
 C         3.525643         0.507450         0.835108
 C         2.656595         1.629133         1.441654
 C         1.333575         1.233578         1.388907
 C         1.029322        -0.185866         0.935522
 C        -0.083552        -0.143737        -0.068269
 O         0.715477        -0.990631         2.097528
 H         3.222545        -2.346272         0.132999
 H         1.801357        -2.133914        -0.984305
 H         3.501849        -1.478812        -1.353400
 H         4.592561         0.493173         0.424444
 H         2.931227         2.556057         1.952778
 H         0.631008         1.913073         1.909370
 H         0.616097        -0.015284        -0.971478
 H        -0.806642        -0.982442         0.051289
 H        -0.568346         0.861292         0.032445
 H         1.697362        -1.116725         2.439463
