19
Iteration:  1500
 C         2.678282        -1.776833        -0.460313
 C         2.465071        -0.593637         0.453802
 O         3.210711        -0.848101         1.672455
 C         3.615489         0.319356         0.981729
 C         2.821899         1.583933         1.534914
 C         1.485242         1.299902         1.503877
 C         1.075957        -0.074230         0.863461
 C         0.029405         0.133639        -0.165408
 O         0.546461        -0.999666         1.778061
 H         1.961594        -2.645524        -0.420547
 H         2.805540        -1.547107        -1.520042
 H         3.750529        -2.278498        -0.324886
 H         4.593060         0.469783         0.552550
 H         3.389806         2.397026         2.036877
 H         0.609136         1.948030         1.803567
 H         0.360278         0.693623        -1.080886
 H        -0.294851        -0.864907        -0.502564
 H        -0.769127         0.640352         0.514609
 H         0.978894        -0.823438         2.678874
