19
Iteration:  3621charge 0 multiplicity 1
 C         2.872794        -1.565982        -0.674348
 C         2.537303        -0.613257         0.405630
 O         3.520864        -0.767767         1.654095
 C         3.465020         0.415476         0.753611
 C         2.714772         1.601694         1.342170
 C         1.461402         1.186303         1.477393
 C         1.052440        -0.239955         0.999345
 C        -0.136475        -0.076656         0.005479
 O         0.442109        -0.993211         2.128045
 H         3.826976        -1.330993        -0.932792
 H         2.758529        -2.547945        -0.173080
 H         2.177112        -1.352265        -1.561425
 H         4.367335         0.580079         0.123009
 H         3.016287         2.610775         1.659536
 H         0.613361         1.690695         1.974603
 H         0.091535         0.497398        -0.952723
 H        -0.441922        -1.089666        -0.254677
 H        -0.952736         0.384418         0.552825
 H         1.093594        -0.632209         2.837867
