19
Iteration:  1221
 C         2.603319        -1.676594        -0.491144
 C         2.502140        -0.607811         0.540589
 O         3.449489        -0.842995         1.601313
 C         3.540998         0.445888         0.951899
 C         2.768329         1.530539         1.531555
 C         1.461080         1.239992         1.580009
 C         1.108468        -0.087837         0.947488
 C         0.094971         0.032558        -0.292617
 O         0.425069        -0.990921         1.878660
 H         1.969320        -2.455592        -0.135243
 H         2.223249        -1.344683        -1.397715
 H         3.653260        -2.046948        -0.571584
 H         4.463516         0.586669         0.434299
 H         3.059732         2.553718         1.649031
 H         0.636159         1.862469         2.001365
 H         0.599974        -0.028374        -1.243039
 H        -0.639489        -0.702133        -0.322978
 H        -0.305658         1.009197        -0.254928
 H         0.958231        -1.481419         2.446836
