19
Iteration:  3122
 C         2.725347        -1.770214        -0.618607
 C         2.521664        -0.651648         0.482076
 O         3.374633        -0.536441         1.804694
 C         3.472154         0.460686         0.759856
 C         2.737417         1.612420         1.331313
 C         1.504223         1.192689         1.590314
 C         1.046933        -0.081380         0.986470
 C        -0.071527         0.055646        -0.057505
 O         0.578679        -1.217355         1.867570
 H         2.818285        -1.411182        -1.585407
 H         3.693479        -2.361550        -0.462056
 H         1.885742        -2.508908        -0.486003
 H         4.483972         0.363046         0.348922
 H         3.201925         2.571721         1.448085
 H         0.717500         1.810516         2.086580
 H         0.353699         0.580409        -0.940849
 H        -0.376677        -1.024718        -0.207222
 H        -0.964435         0.678780         0.355787
 H         1.259878        -1.319442         2.497580
