19
Iteration:    52charge 0 multiplicity 1
 C         2.465331        -1.873196        -0.351685
 C         2.564392        -0.625986         0.585537
 O         3.394164        -0.645841         1.772125
 C         3.490081         0.440785         0.796627
 C         2.750265         1.604391         1.334040
 C         1.508680         1.167436         1.631186
 C         1.185516        -0.110341         0.904725
 C         0.158253         0.203905        -0.204224
 O         0.477187        -1.151784         1.719589
 H         1.834052        -2.681919         0.092967
 H         1.775463        -1.563418        -1.209981
 H         3.431889        -2.188497        -0.654452
 H         4.505304         0.589775         0.374841
 H         3.175953         2.590800         1.483816
 H         0.708636         1.793767         1.999211
 H        -0.201473        -0.754115        -0.569998
 H        -0.598222         0.804899         0.309574
 H         0.422131         0.924366        -1.018370
 H         1.100568        -1.307760         2.464907
