19
Iteration:  1783
 C         2.535275        -1.679381        -0.551304
 C         2.551988        -0.647807         0.526213
 O         3.243712        -0.707249         1.830138
 C         3.541881         0.359428         0.911475
 C         2.786965         1.558386         1.322223
 C         1.500285         1.254984         1.592440
 C         1.181940        -0.112773         0.958889
 C         0.223652         0.113085        -0.199399
 O         0.379627        -1.111767         1.817067
 H         2.386716        -2.666653        -0.110283
 H         1.883407        -1.382740        -1.394947
 H         3.632601        -1.722582        -0.904367
 H         4.596886         0.341486         0.606597
 H         3.447261         2.458370         1.432451
 H         0.751317         1.960167         2.002065
 H         0.730991         0.793646        -0.949597
 H        -0.102429        -0.779084        -0.758231
 H        -0.620841         0.715607         0.180846
 H         1.008283        -1.634661         2.316474
