19
Iteration:   711
 C         2.638922        -1.688038        -0.541554
 C         2.408996        -0.694875         0.612475
 O         3.364340        -0.799099         1.779933
 C         3.486836         0.328330         0.879538
 C         2.887851         1.522957         1.447601
 C         1.522509         1.280973         1.469367
 C         1.111897        -0.107830         0.936469
 C         0.173840         0.063889        -0.247695
 O         0.341457        -0.892022         1.881053
 H         2.323874        -2.752682        -0.299986
 H         2.290340        -1.379038        -1.576880
 H         3.762035        -1.770826        -0.786857
 H         4.422097         0.131735         0.335052
 H         3.427309         2.393979         1.759183
 H         0.732854         1.937637         1.821632
 H         0.497659        -0.543355        -1.163764
 H        -0.832818        -0.388508         0.003099
 H         0.008366         1.134774        -0.564003
 H         0.859573        -1.035862         2.726466
