19
Iteration:  2839
 C         2.653938        -1.604961        -0.593944
 C         2.522514        -0.679405         0.515715
 O         3.408551        -0.699630         1.815209
 C         3.398677         0.376804         0.839708
 C         2.635044         1.592666         1.256494
 C         1.403142         1.225547         1.654423
 C         1.171865        -0.176984         1.034584
 C         0.151266         0.051541        -0.144181
 O         0.557692        -1.108524         1.859736
 H         1.729576        -2.194847        -0.746490
 H         2.892351        -1.137675        -1.590167
 H         3.436291        -2.426480        -0.429041
 H         4.242661         0.653443         0.184058
 H         3.090467         2.571746         1.109272
 H         0.738358         1.860631         2.184752
 H         0.705141         0.402771        -1.038402
 H        -0.497131        -0.786895        -0.354407
 H        -0.593982         0.860688        -0.032105
 H         1.121565        -1.168744         2.666278
