19
Iteration:    61
 C         2.562595        -1.879532        -0.361000
 C         2.496785        -0.718262         0.539516
 O         3.325191        -0.622592         1.725472
 C         3.470747         0.443645         0.749128
 C         2.702950         1.599498         1.379595
 C         1.523025         1.083073         1.699341
 C         1.187843        -0.128165         0.959553
 C         0.197239         0.255044        -0.252875
 O         0.501271        -1.034245         1.775220
 H         2.096136        -2.671494         0.259093
 H         2.075451        -1.653020        -1.360646
 H         3.526439        -2.307803        -0.623003
 H         4.331425         0.515298         0.011196
 H         3.106175         2.612285         1.402241
 H         0.695717         1.643167         2.163596
 H        -0.293027        -0.631568        -0.719027
 H        -0.674284         0.697962         0.290277
 H         0.711597         0.900925        -1.014026
 H         1.068778        -1.325059         2.517148
