19
Iteration:  1978
 C         2.549020        -1.853969        -0.371196
 C         2.523830        -0.572114         0.444228
 O         3.388796        -0.753058         1.589629
 C         3.550707         0.419028         0.834949
 C         2.754918         1.503498         1.590582
 C         1.398495         1.224501         1.682421
 C         1.159734        -0.036063         0.952715
 C         0.152115         0.081240        -0.328467
 O         0.451466        -0.977785         1.797004
 H         2.164031        -2.718973         0.222536
 H         2.137066        -1.640840        -1.354081
 H         3.651775        -2.038806        -0.642813
 H         4.392338         0.628396         0.204654
 H         3.329929         2.282697         2.053982
 H         0.629388         1.736687         2.274218
 H         0.289804         1.030897        -0.864753
 H         0.402102        -0.811186        -0.957681
 H        -0.920327         0.063731         0.014345
 H         0.973247        -0.897699         2.690944
