19
Iteration:  2145
 C         2.742683        -1.469600        -0.711522
 C         2.617825        -0.615172         0.509063
 O         3.057260        -0.965389         1.757155
 C         3.512096         0.295011         1.071734
 C         2.808478         1.560609         1.470665
 C         1.485963         1.267174         1.374647
 C         1.033115        -0.116470         0.906181
 C         0.001052        -0.185506        -0.241476
 O         0.677063        -0.797032         2.024811
 H         2.190225        -2.440024        -0.553931
 H         2.404025        -0.739295        -1.489043
 H         3.694352        -1.747397        -1.123294
 H         4.618120         0.254546         0.865939
 H         3.112341         2.487213         1.911857
 H         0.723913         1.998525         1.737433
 H         0.158618         0.706273        -0.874556
 H         0.058825        -1.138071        -0.775433
 H        -0.992763        -0.175151         0.175571
 H         1.423999        -0.712088         2.567101
