19
Iteration:  3567charge 0 multiplicity 1
 C         2.504308        -1.708743        -0.564371
 C         2.523917        -0.544539         0.437005
 O         3.314877        -0.671745         1.602088
 C         3.511102         0.505534         0.867219
 C         2.683397         1.591651         1.405016
 C         1.417468         1.204138         1.591734
 C         1.122616        -0.154128         0.963950
 C         0.091398        -0.125803        -0.198173
 O         0.717268        -1.020815         2.070069
 H         2.411245        -1.445228        -1.562798
 H         3.502749        -2.209606        -0.499286
 H         1.735492        -2.472647        -0.302069
 H         4.436248         0.717034         0.339788
 H         2.989493         2.500974         1.869696
 H         0.605654         1.687755         2.159946
 H         0.357727         0.654746        -0.946031
 H         0.030495        -1.117492        -0.644435
 H        -0.882367         0.203803         0.138171
 H         1.612442        -1.515851         2.164944
