19
Iteration:   427charge 0 multiplicity 1
 C         2.617547        -1.717035        -0.437862
 C         2.495305        -0.630845         0.503914
 O         3.423084        -0.783633         1.658516
 C         3.499188         0.395559         0.856096
 C         2.838390         1.480134         1.577507
 C         1.498508         1.212183         1.597009
 C         1.129090        -0.061507         0.799549
 C        -0.010425        -0.057683        -0.296208
 O         0.455817        -0.836366         1.875514
 H         1.663038        -2.224161        -0.462027
 H         2.995154        -1.505845        -1.463809
 H         3.310998        -2.382584         0.016793
 H         4.455964         0.458183         0.306778
 H         3.259334         2.334680         2.043648
 H         0.700841         1.700831         2.179087
 H        -0.699724        -0.806947         0.019356
 H        -0.607095         0.862507        -0.270249
 H         0.432873        -0.067993        -1.279552
 H         1.177442        -0.761660         2.657149
