19
Iteration:  3166
 C         2.618697        -1.824180        -0.474642
 C         2.528907        -0.566022         0.426702
 O         3.528058        -0.699171         1.543936
 C         3.454326         0.559912         0.772536
 C         2.651955         1.547364         1.523525
 C         1.387133         1.239055         1.563585
 C         1.087472        -0.190940         0.992455
 C         0.040140         0.012947        -0.228251
 O         0.580206        -1.041854         2.077512
 H         3.147050        -1.628371        -1.363496
 H         3.235009        -2.666512        -0.059497
 H         1.598168        -2.219745        -0.759462
 H         4.239090         1.016586         0.166441
 H         3.014193         2.510133         1.860159
 H         0.580648         1.866896         1.931125
 H         0.497315         0.754170        -0.950461
 H        -0.062411        -1.025044        -0.675124
 H        -1.035958         0.364486         0.047764
 H         1.397549        -1.319283         2.449246
