19
Iteration:   634
 C         2.510909        -1.758231        -0.364257
 C         2.520098        -0.651590         0.639531
 O         3.354761        -0.763909         1.822878
 C         3.492284         0.389744         0.741418
 C         2.830391         1.519231         1.374231
 C         1.498721         1.335608         1.560125
 C         1.132817        -0.082909         0.954434
 C         0.212130         0.181412        -0.209100
 O         0.435146        -1.149923         1.693661
 H         1.917859        -2.653947        -0.009157
 H         1.962708        -1.295162        -1.279257
 H         3.505192        -2.007140        -0.728694
 H         4.444631         0.570792         0.318996
 H         3.177047         2.489572         1.687831
 H         0.876088         2.090841         1.986266
 H        -0.327451        -0.790071        -0.410865
 H        -0.585171         0.962715        -0.059112
 H         0.721492         0.506895        -1.166514
 H         0.862972        -1.326656         2.536890
