19
Iteration:  4878
 C         2.807887        -1.690167        -0.564137
 C         2.557234        -0.631660         0.508351
 O         3.453792        -0.790844         1.650099
 C         3.502744         0.440626         0.791725
 C         2.706368         1.583382         1.236295
 C         1.397017         1.302036         1.426299
 C         1.069096        -0.139138         1.064325
 C        -0.046792        -0.046007        -0.032827
 O         0.468399        -0.998573         2.061558
 H         3.811946        -2.108174        -0.260477
 H         1.994553        -2.433190        -0.612543
 H         2.965508        -1.477940        -1.617478
 H         4.439090         0.621673         0.292058
 H         3.084952         2.591129         1.332306
 H         0.674215         1.950579         1.990405
 H         0.046418         0.787441        -0.800320
 H        -0.268923        -1.087506        -0.424090
 H        -1.046736         0.430796         0.334393
 H         1.183029        -1.341112         2.718806
