19
Iteration:  1790charge 0 multiplicity 1
 C         2.631246        -1.672224        -0.557399
 C         2.520468        -0.597342         0.496342
 O         3.278743        -0.782142         1.842918
 C         3.482142         0.339120         0.964140
 C         2.848878         1.545051         1.304273
 C         1.541922         1.273525         1.579582
 C         1.113901        -0.050807         0.952571
 C         0.189898         0.098966        -0.227311
 O         0.387601        -1.095772         1.867765
 H         2.257523        -2.614340        -0.189301
 H         2.067546        -1.343915        -1.390392
 H         3.602175        -1.678149        -1.086775
 H         4.522811         0.478590         0.587136
 H         3.347405         2.488855         1.468987
 H         0.736459         1.945605         1.761660
 H         0.406442         0.829124        -0.971330
 H         0.003751        -0.861676        -0.638802
 H        -0.820319         0.450111         0.116728
 H         0.830680        -1.752556         2.331514
