19
Iteration:  3894charge 0 multiplicity 1
 C         2.719185        -1.566573        -0.636437
 C         2.519413        -0.636994         0.577625
 O         3.493850        -0.867933         1.673457
 C         3.466615         0.434892         0.845859
 C         2.619454         1.640878         1.254509
 C         1.379567         1.302672         1.454034
 C         1.094504        -0.205929         1.104264
 C        -0.001023        -0.148046        -0.122911
 O         0.575815        -0.960784         2.063908
 H         3.198986        -2.401613        -0.150924
 H         1.813413        -1.742979        -1.286833
 H         3.464576        -1.089857        -1.348932
 H         4.228716         0.611736         0.037730
 H         3.004380         2.656494         1.282282
 H         0.621735         2.121957         1.708409
 H         0.252371         0.699394        -0.805016
 H         0.000682        -1.124089        -0.617042
 H        -0.965343        -0.034754         0.363560
 H         1.257257        -1.160555         2.802763
