19
Iteration:  4012
 C         2.674869        -1.571286        -0.536166
 C         2.514757        -0.591593         0.529575
 O         3.413164        -0.715485         1.701619
 C         3.437738         0.476709         0.747616
 C         2.706535         1.622651         1.226391
 C         1.411755         1.258098         1.530540
 C         1.125347        -0.190554         1.070516
 C        -0.011812        -0.213923        -0.119981
 O         0.593809        -1.066242         2.001413
 H         2.821872        -2.577258        -0.349969
 H         1.847471        -1.444758        -1.297344
 H         3.521951        -1.254803        -1.228433
 H         4.415408         0.599107         0.220517
 H         3.214372         2.553999         1.466778
 H         0.738139         1.729278         2.300929
 H         0.581775         0.178752        -1.037972
 H        -0.525602        -1.196047        -0.171050
 H        -0.678223         0.586335         0.140610
 H         1.202222        -1.017805         2.825943
