19
Iteration:  1859charge 0 multiplicity 1
 C         2.739766        -1.640132        -0.747711
 C         2.538681        -0.633368         0.473620
 O         3.235420        -1.012017         1.629373
 C         3.509029         0.353839         1.104095
 C         2.735673         1.484756         1.634035
 C         1.419293         1.373973         1.402403
 C         1.094310        -0.080858         0.837217
 C         0.046391        -0.226978        -0.283974
 O         0.561362        -0.623770         2.086000
 H         1.824757        -2.142351        -0.900061
 H         3.018600        -0.946846        -1.488477
 H         3.671323        -2.224942        -0.653446
 H         4.594453         0.474094         1.027594
 H         3.267093         2.180411         2.277922
 H         0.720611         2.074536         1.912803
 H         0.231180         0.214131        -1.270231
 H        -0.168800        -1.288998        -0.414906
 H        -0.807069         0.367376        -0.013145
 H         1.455005        -0.974042         2.539312
