19
Iteration:  4781
 C         2.808911        -1.551354        -0.682246
 C         2.546280        -0.621988         0.527675
 O         3.333364        -0.950576         1.666573
 C         3.529947         0.376225         0.915152
 C         2.707267         1.575791         1.357958
 C         1.370739         1.402459         1.257135
 C         1.030730        -0.100729         1.008932
 C        -0.055156        -0.233171        -0.063149
 O         0.626132        -0.871846         2.162606
 H         3.870036        -1.356105        -0.930190
 H         2.560402        -2.571389        -0.654096
 H         2.237330        -1.306156        -1.570544
 H         4.501879         0.484916         0.418242
 H         3.100984         2.509129         1.658587
 H         0.530936         2.094563         1.378378
 H         0.072920         0.228452        -1.045913
 H        -0.426327        -1.272639         0.064620
 H        -0.939091         0.292394         0.416605
 H         1.436258        -0.981165         2.645676
