19
Iteration:   976charge 0 multiplicity 1
 C         2.626894        -1.534991        -0.526082
 C         2.436861        -0.636031         0.598818
 O         3.455362        -0.864562         1.664755
 C         3.519737         0.361737         0.856420
 C         2.701040         1.497279         1.359747
 C         1.433472         1.190524         1.627558
 C         1.064833        -0.096718         1.011054
 C         0.283309         0.052534        -0.296221
 O         0.359329        -0.930729         1.939545
 H         2.211869        -2.573175        -0.444605
 H         2.309940        -1.159564        -1.543453
 H         3.686789        -1.675353        -0.459785
 H         4.350486         0.445120         0.176407
 H         3.179585         2.450915         1.710559
 H         0.832861         1.612681         2.455786
 H         0.790937        -0.106388        -1.268629
 H        -0.487404        -0.781515        -0.309755
 H        -0.160329         1.081130        -0.376744
 H         1.010695        -1.448788         2.319131
