19
Iteration:  1719charge 0 multiplicity 1
 C         2.611880        -1.903652        -0.326857
 C         2.538234        -0.670702         0.503098
 O         3.555924        -0.725701         1.519542
 C         3.419760         0.547093         0.768904
 C         2.771433         1.512650         1.635232
 C         1.483550         1.177466         1.721644
 C         1.126852        -0.127764         0.904422
 C         0.240783         0.182932        -0.286937
 O         0.200326        -0.939269         1.768700
 H         1.969407        -2.662883         0.177314
 H         2.456408        -1.977274        -1.422948
 H         3.694142        -2.170203        -0.249115
 H         4.252936         0.923154         0.157784
 H         3.340440         2.179953         2.341677
 H         0.585905         1.528104         2.232090
 H         0.892333         0.513778        -1.161338
 H        -0.135522        -0.853836        -0.475383
 H        -0.613475         0.895802        -0.248351
 H         0.704941        -1.214189         2.489740
