19
Iteration:  3542charge 0 multiplicity 1
 C         2.445051        -1.672834        -0.507992
 C         2.546416        -0.603341         0.547995
 O         3.424641        -0.789427         1.690243
 C         3.440941         0.556704         0.765469
 C         2.666610         1.615082         1.406674
 C         1.377752         1.290892         1.582807
 C         1.159348        -0.122064         0.970520
 C         0.128035        -0.092225        -0.190977
 O         0.708425        -1.105661         1.922083
 H         1.736946        -1.656570        -1.372983
 H         3.396860        -1.759183        -1.124400
 H         2.390956        -2.664654        -0.041893
 H         4.338882         0.742605         0.184719
 H         3.044267         2.571107         1.794482
 H         0.534743         1.749552         2.090041
 H         0.472519         0.443592        -1.047438
 H        -0.194505        -1.111846        -0.498796
 H        -0.844231         0.396969         0.160903
 H         1.393850        -0.925373         2.663690
