19
Iteration:  1162
 C         2.653813        -1.765484        -0.459950
 C         2.523011        -0.588837         0.422153
 O         3.267321        -0.759347         1.712029
 C         3.529000         0.362834         0.856923
 C         2.732154         1.531183         1.411710
 C         1.504425         1.150159         1.620953
 C         1.108953        -0.057545         0.921624
 C         0.111946         0.202839        -0.194251
 O         0.503952        -1.040474         1.871732
 H         1.932870        -2.531084        -0.050797
 H         2.364648        -1.563823        -1.559062
 H         3.651461        -2.196457        -0.467788
 H         4.587259         0.461047         0.503680
 H         3.189882         2.475312         1.658171
 H         0.717508         1.788700         2.017132
 H         0.340439         1.244995        -0.593985
 H         0.261695        -0.636626        -1.005029
 H        -1.061838         0.131878         0.158317
 H         1.272973        -1.266687         2.545510
