19
Iteration:  1131charge 0 multiplicity 1
 C         2.881152        -1.714281        -0.536982
 C         2.492388        -0.804282         0.599715
 O         3.502412        -0.877053         1.640835
 C         3.372399         0.305319         0.769749
 C         2.831899         1.576613         1.507618
 C         1.478206         1.319154         1.570061
 C         1.054403        -0.044562         0.968310
 C         0.004863         0.086440        -0.172512
 O         0.275636        -0.885285         1.905925
 H         2.427681        -2.696342        -0.628262
 H         2.637206        -1.184083        -1.477887
 H         3.971051        -1.848735        -0.553239
 H         4.298880         0.483076         0.170632
 H         3.413987         2.419992         1.918438
 H         0.739743         2.084246         1.736830
 H         0.029754         1.104340        -0.546257
 H         0.327885        -0.380695        -1.062221
 H        -1.010365        -0.072203         0.279790
 H         0.885402        -1.277646         2.444725
