19
Iteration:  2234
 C         2.512298        -1.630112        -0.613268
 C         2.495610        -0.666298         0.542276
 O         3.292533        -0.751336         1.724481
 C         3.482608         0.427884         0.855030
 C         2.742231         1.534483         1.518362
 C         1.406728         1.271996         1.592670
 C         1.185477        -0.098007         0.976751
 C         0.295714        -0.082207        -0.300475
 O         0.510719        -1.003047         1.904257
 H         1.649775        -2.261302        -0.605321
 H         2.781333        -1.095110        -1.509826
 H         3.411705        -2.251215        -0.340439
 H         4.427445         0.521977         0.322634
 H         3.275796         2.408523         1.926115
 H         0.665000         1.934976         1.997756
 H         0.636013         0.276174        -1.263100
 H        -0.321261        -0.953618        -0.320205
 H        -0.468007         0.726270        -0.164414
 H         1.199514        -1.198232         2.542164
