19
Iteration:  1455
 C         2.489999        -1.784932        -0.359738
 C         2.486755        -0.640380         0.518256
 O         3.411980        -0.780558         1.608454
 C         3.500752         0.408670         0.856065
 C         2.726134         1.531948         1.570791
 C         1.427384         1.201157         1.612238
 C         1.169305        -0.060701         0.891015
 C         0.203954         0.179774        -0.367020
 O         0.477577        -0.995545         1.857736
 H         1.929575        -2.599530         0.160187
 H         2.112715        -1.658861        -1.374585
 H         3.570032        -2.193378        -0.547571
 H         4.447827         0.476380         0.379687
 H         3.141720         2.380262         2.172717
 H         0.728927         1.760627         2.277890
 H         0.784362         0.727230        -1.114676
 H        -0.023383        -0.753492        -0.954327
 H        -0.693116         0.755235         0.045401
 H         1.275562        -1.368305         2.330292
