19
Iteration:  1758
 C         2.539750        -1.828730        -0.401784
 C         2.519600        -0.682012         0.581932
 O         3.407131        -0.798696         1.746830
 C         3.390230         0.437441         0.832358
 C         2.691509         1.595614         1.422176
 C         1.455369         1.173618         1.634681
 C         1.166777        -0.048739         0.928641
 C         0.251080         0.289964        -0.298653
 O         0.490021        -1.129970         1.757717
 H         2.286612        -2.766231         0.031760
 H         1.902552        -1.495069        -1.163212
 H         3.588171        -1.979812        -0.837998
 H         4.325669         0.528515         0.252720
 H         3.266021         2.451744         1.765267
 H         0.686145         1.747716         2.093228
 H         0.872373         0.617377        -1.113362
 H        -0.264056        -0.559248        -0.653881
 H        -0.436729         1.122267        -0.046168
 H         0.807343        -0.930319         2.702996
