19
Iteration:   683charge 0 multiplicity 1
 C         2.735324        -1.914855        -0.421891
 C         2.542832        -0.624901         0.563106
 O         3.443788        -0.901495         1.554801
 C         3.437242         0.428723         0.739375
 C         2.714282         1.454513         1.580096
 C         1.411757         1.260031         1.664701
 C         1.023806        -0.055848         0.903246
 C         0.216309         0.131715        -0.363919
 O         0.355735        -0.744275         1.953364
 H         2.256569        -2.656754         0.162298
 H         2.348087        -1.881914        -1.397626
 H         3.818382        -2.100343        -0.565750
 H         4.444054         0.385676         0.255835
 H         3.356488         2.290174         2.022434
 H         0.595112         1.845074         2.242016
 H         0.497713        -0.555198        -1.097912
 H        -0.814680        -0.058553        -0.218424
 H         0.267597         1.123777        -0.719101
 H         1.013292        -1.073825         2.702899
