19
Iteration:  3384
 C         2.779140        -1.675696        -0.540397
 C         2.466688        -0.550330         0.384661
 O         3.357145        -0.749700         1.609570
 C         3.462801         0.444329         0.761750
 C         2.705415         1.643118         1.397817
 C         1.437385         1.234270         1.650894
 C         1.066246        -0.127424         0.947824
 C        -0.103272        -0.034950        -0.073639
 O         0.697695        -1.106906         2.037763
 H         3.452352        -1.367086        -1.441806
 H         3.297569        -2.400758         0.139397
 H         1.813671        -2.257939        -0.936151
 H         4.380533         0.526418         0.227343
 H         3.219448         2.615499         1.544368
 H         0.620505         1.945630         1.885236
 H         0.107007         0.300020        -1.146432
 H        -0.409279        -1.087918        -0.254475
 H        -1.021088         0.517833         0.185972
 H         1.452548        -1.152861         2.592413
