19
Iteration:  2026
 C         2.556458        -1.764770        -0.449107
 C         2.429319        -0.623284         0.609781
 O         3.525719        -0.695796         1.698254
 C         3.516760         0.387250         0.803980
 C         2.667655         1.563555         1.331729
 C         1.418526         1.175866         1.667496
 C         1.087580        -0.092855         1.026501
 C         0.297233         0.282328        -0.219625
 O         0.361390        -1.197199         1.777233
 H         1.920517        -2.611864        -0.095362
 H         2.474310        -1.502651        -1.536123
 H         3.523898        -2.184877        -0.306888
 H         4.541073         0.387739         0.343583
 H         2.990433         2.638093         1.388163
 H         0.763130         1.934627         2.090592
 H         1.045829         0.726374        -0.936351
 H        -0.309933        -0.597548        -0.549325
 H        -0.410939         1.049542         0.126066
 H         1.141191        -1.560697         2.117419
