19
Iteration:  1909charge 0 multiplicity 1
 C         2.755543        -1.439270        -0.816420
 C         2.510703        -0.705002         0.581520
 O         3.161509        -0.929010         1.855185
 C         3.579420         0.267052         1.114144
 C         2.828256         1.580901         1.368507
 C         1.508467         1.326683         1.350483
 C         1.149413        -0.095324         0.896256
 C        -0.018346        -0.071001        -0.247101
 O         0.510248        -0.961273         2.065955
 H         2.032819        -2.276898        -0.748716
 H         2.512811        -0.683801        -1.605778
 H         3.845214        -1.796095        -1.018996
 H         4.648042         0.248716         0.713576
 H         3.290949         2.534375         1.764837
 H         0.667948         1.943587         1.659918
 H         0.424850         0.183829        -1.229909
 H        -0.487760        -1.047669        -0.353710
 H        -0.869787         0.740962        -0.212246
 H         0.982203        -0.848071         2.835260
