19
Iteration:  1748charge 0 multiplicity 1
 C         2.548832        -1.828637        -0.362027
 C         2.523478        -0.670095         0.539633
 O         3.479685        -0.785639         1.651867
 C         3.451072         0.428416         0.803892
 C         2.699618         1.516806         1.491772
 C         1.370523         1.264143         1.730100
 C         1.133262        -0.140574         0.914071
 C         0.244302         0.304778        -0.365313
 O         0.454369        -1.103712         1.784017
 H         2.165053        -2.616770         0.260389
 H         2.052570        -1.967404        -1.274788
 H         3.711985        -2.012909        -0.520679
 H         4.416282         0.709470         0.312698
 H         3.312324         2.394031         1.782991
 H         0.568625         1.843864         2.130927
 H         0.896176         0.650303        -1.158815
 H        -0.403561        -0.478300        -0.649673
 H        -0.441073         1.151740        -0.077167
 H         0.685065        -0.818572         2.686512
