19
Iteration:   111charge 0 multiplicity 1
 C         2.729011        -1.732724        -0.493158
 C         2.461610        -0.761890         0.590327
 O         3.617592        -0.780084         1.589500
 C         3.423595         0.386728         0.758431
 C         2.769407         1.510940         1.502930
 C         1.439419         1.192864         1.595160
 C         1.036958        -0.132427         1.005003
 C         0.194697         0.055225        -0.219159
 O         0.220481        -0.822732         1.920502
 H         2.396303        -2.756427        -0.302811
 H         2.259088        -1.434388        -1.401773
 H         3.849202        -1.770731        -0.674403
 H         4.232712         0.630511         0.057847
 H         3.303918         2.520328         1.561078
 H         0.678604         1.923049         1.990642
 H        -0.040293        -0.834642        -0.803487
 H        -0.721912         0.554140         0.101689
 H         0.775016         0.716433        -0.829359
 H         0.758048        -0.997513         2.766520
