19
Iteration:  2713charge 0 multiplicity 1
 C         2.779194        -1.445902        -0.589679
 C         2.509316        -0.634070         0.573976
 O         3.232706        -1.012866         1.784546
 C         3.498366         0.401238         0.916926
 C         2.734203         1.645589         1.351789
 C         1.429031         1.294265         1.357869
 C         1.146938        -0.126439         0.955466
 C         0.051825        -0.031834        -0.134584
 O         0.540375        -1.044018         1.982025
 H         3.817330        -1.541550        -0.703941
 H         2.303174        -2.438814        -0.657706
 H         2.489978        -0.892061        -1.486842
 H         4.499491         0.249810         0.389814
 H         3.234736         2.608713         1.543190
 H         0.736903         2.083171         1.496732
 H         0.200942         0.235151        -1.161537
 H        -0.202302        -1.080108        -0.266725
 H        -0.813515         0.568652         0.201711
 H         1.133372        -0.995164         2.706069
