19
Iteration:  2294
 C         2.744937        -1.908350        -0.437808
 C         2.588610        -0.713242         0.519702
 O         3.329724        -0.686824         1.727545
 C         3.502210         0.428478         0.797258
 C         2.784853         1.607935         1.443250
 C         1.482912         1.206486         1.632873
 C         1.140518        -0.189708         0.910013
 C         0.050749         0.260647        -0.189896
 O         0.368516        -1.010548         1.744961
 H         2.617316        -2.874731         0.160464
 H         1.990234        -2.016302        -1.272703
 H         3.732784        -1.910668        -0.817799
 H         4.388336         0.689303         0.135004
 H         3.163718         2.353925         2.117489
 H         0.641870         1.641849         2.247305
 H         0.452078         1.186160        -0.645079
 H        -0.071226        -0.349444        -1.146116
 H        -0.898526         0.299679         0.362758
 H         0.832759        -1.035883         2.684138
