19
Iteration:   792charge 0 multiplicity 1
 C         2.758116        -1.725729        -0.553499
 C         2.549977        -0.614191         0.448318
 O         3.264568        -0.965587         1.664570
 C         3.549030         0.344138         0.961950
 C         2.823830         1.499499         1.564073
 C         1.461936         1.306121         1.536949
 C         1.079170         0.008839         0.829734
 C        -0.079844        -0.131920        -0.268953
 O         0.511104        -0.662356         1.961981
 H         1.860471        -2.265138        -0.817105
 H         3.115646        -1.347204        -1.499418
 H         3.471340        -2.415450        -0.123577
 H         4.460166         0.334285         0.409980
 H         3.294888         2.215651         2.218315
 H         0.737582         1.775805         2.155258
 H        -0.318487        -1.139400        -0.399400
 H        -0.916674         0.468157        -0.044068
 H         0.345318         0.214343        -1.169055
 H         1.388061        -0.893810         2.518009
