19
Iteration:   778charge 0 multiplicity 1
 C         2.755764        -1.711277        -0.579611
 C         2.441180        -0.647469         0.505070
 O         3.187851        -0.877695         1.716668
 C         3.494878         0.290515         0.918335
 C         2.815173         1.428205         1.599181
 C         1.495991         1.398762         1.342871
 C         1.044904        -0.009396         0.848329
 C         0.013480        -0.026893        -0.211116
 O         0.633008        -0.827205         1.958421
 H         1.811444        -2.271459        -0.763025
 H         3.224342        -1.286686        -1.458302
 H         3.544559        -2.441055        -0.110375
 H         4.568834         0.451084         0.681370
 H         3.325691         2.164385         2.262109
 H         0.814803         2.178101         1.813036
 H        -0.148008        -1.075348        -0.554172
 H        -0.956208         0.190099         0.288908
 H         0.125656         0.690488        -1.044080
 H         1.373302        -0.856107         2.501141
