19
Iteration:  1923
 C         2.781393        -1.526731        -0.744401
 C         2.588273        -0.674667         0.498145
 O         3.210508        -0.929467         1.884803
 C         3.518516         0.309868         1.004189
 C         2.760213         1.513073         1.401314
 C         1.475308         1.222987         1.406355
 C         1.070603        -0.148617         0.921779
 C         0.037107         0.018031        -0.169308
 O         0.471228        -0.858433         1.954739
 H         2.311201        -2.540277        -0.829433
 H         2.458841        -0.969709        -1.619299
 H         3.953179        -1.609472        -0.888887
 H         4.578994         0.359389         0.729743
 H         3.221477         2.462411         1.578412
 H         0.709382         1.947163         1.746507
 H         0.419666         0.492113        -1.083768
 H        -0.363140        -0.966164        -0.384884
 H        -0.677290         0.743309         0.347382
 H         1.254236        -0.756437         2.661444
