19
Iteration:  1348
 C         2.600076        -1.710886        -0.513022
 C         2.497421        -0.541487         0.472956
 O         3.200790        -0.874942         1.641109
 C         3.553883         0.357565         0.974800
 C         2.769612         1.499542         1.601635
 C         1.430022         1.279955         1.531128
 C         1.120292         0.017564         0.846942
 C         0.068059         0.009619        -0.276559
 O         0.670448        -0.945091         1.882806
 H         1.992739        -2.589212        -0.217748
 H         2.537576        -1.464251        -1.566849
 H         3.658734        -2.219239        -0.359283
 H         4.543631         0.410691         0.629023
 H         3.317773         2.327565         2.035767
 H         0.610599         1.944093         1.782446
 H         0.362315         0.650393        -1.112839
 H        -0.208465        -1.020373        -0.444482
 H        -0.987247         0.210919         0.146207
 H         1.319298        -0.936709         2.564168
