19
Iteration:  4805
 C         2.589309        -1.493390        -0.685255
 C         2.525453        -0.595205         0.515106
 O         3.291009        -0.940260         1.696226
 C         3.459968         0.429999         0.995090
 C         2.749355         1.630727         1.412376
 C         1.452412         1.383595         1.314264
 C         1.115358        -0.117265         0.894680
 C         0.031695        -0.446996        -0.093822
 O         0.697055        -0.795590         2.100582
 H         3.584221        -1.936255        -0.787113
 H         1.817504        -2.219031        -0.763227
 H         2.386418        -0.989717        -1.685099
 H         4.458265         0.552154         0.655771
 H         3.192911         2.624616         1.575772
 H         0.630085         1.999181         1.730730
 H         0.213271        -0.266611        -1.118618
 H        -0.292109        -1.467336         0.223827
 H        -0.886829         0.152137         0.107209
 H         1.568858        -1.036771         2.586755
