19
Iteration:  1036
 C         2.716902        -1.648456        -0.548957
 C         2.630807        -0.618606         0.437804
 O         3.181884        -0.922930         1.705672
 C         3.543822         0.389059         0.973797
 C         2.755577         1.578798         1.592795
 C         1.469917         1.240385         1.484186
 C         1.117445        -0.107746         0.809375
 C        -0.123235         0.067328        -0.190584
 O         0.641015        -0.952956         1.870334
 H         1.964767        -2.383198        -0.356388
 H         2.750667        -1.322527        -1.534699
 H         3.733783        -2.185565        -0.374324
 H         4.608162         0.485184         0.701512
 H         3.215231         2.542582         1.819379
 H         0.666680         1.821376         1.881403
 H         0.130638        -0.156070        -1.247758
 H        -0.812032        -0.737022         0.070314
 H        -0.505992         1.042441        -0.067348
 H         1.305933        -0.774392         2.684365
