19
Iteration:  2072charge 0 multiplicity 1
 C         2.823032        -1.754850        -0.576232
 C         2.505724        -0.642097         0.455257
 O         3.397461        -0.721641         1.698247
 C         3.498739         0.372984         0.865967
 C         2.727742         1.508436         1.441513
 C         1.492304         1.116734         1.644525
 C         1.043664        -0.125161         0.965293
 C         0.039888         0.128094        -0.236050
 O         0.370986        -0.916956         1.893383
 H         2.210734        -2.607572        -0.404767
 H         2.820582        -1.384009        -1.593392
 H         3.872178        -2.230932        -0.535517
 H         4.390512         0.699215         0.303187
 H         3.235454         2.332947         1.868726
 H         0.791316         1.674901         2.288272
 H         0.828382         0.136772        -0.987578
 H        -0.589502        -0.759815        -0.224010
 H        -0.533100         1.123489        -0.171052
 H         0.658996        -0.884187         2.762457
