19
Iteration:  1130
 C         2.885278        -1.708105        -0.541590
 C         2.495810        -0.807600         0.596508
 O         3.506801        -0.872885         1.644651
 C         3.372783         0.305535         0.773922
 C         2.831034         1.565310         1.510301
 C         1.483353         1.315237         1.566249
 C         1.054960        -0.042538         0.977572
 C         0.006051         0.084960        -0.173219
 O         0.268402        -0.880109         1.906912
 H         2.414523        -2.711854        -0.632757
 H         2.617403        -1.156464        -1.509872
 H         3.953784        -1.835365        -0.554979
 H         4.292657         0.478585         0.145738
 H         3.384214         2.395735         1.898079
 H         0.739100         2.085037         1.721213
 H         0.013581         1.126237        -0.581088
 H         0.350952        -0.417809        -1.104347
 H        -1.068608        -0.086605         0.297989
 H         0.902422        -1.255589         2.481247
