19
Iteration:  1493
 C         2.683287        -1.858221        -0.436618
 C         2.497691        -0.616118         0.430630
 O         3.255502        -0.799912         1.672183
 C         3.539788         0.317042         0.929296
 C         2.806046         1.542629         1.597728
 C         1.450999         1.290267         1.532758
 C         1.140056        -0.010576         0.830350
 C         0.019563         0.153090        -0.213664
 O         0.583688        -0.995782         1.790092
 H         1.828916        -2.546295        -0.287213
 H         2.596722        -1.551385        -1.526185
 H         3.611812        -2.246403        -0.164973
 H         4.639988         0.320150         0.632046
 H         3.163721         2.395736         2.127940
 H         0.637272         1.860635         1.879854
 H         0.195797         0.855331        -1.044383
 H        -0.464533        -0.784269        -0.464620
 H        -0.766994         0.709359         0.292490
 H         1.044391        -0.968096         2.601447
