19
Iteration:   390
 C         2.394303        -1.764225        -0.480100
 C         2.505451        -0.762189         0.585892
 O         3.440856        -0.850851         1.631288
 C         3.395194         0.407407         0.845733
 C         2.703498         1.699914         1.428025
 C         1.450753         1.326643         1.559097
 C         1.109202        -0.130940         1.029746
 C         0.450234         0.132716        -0.345048
 O         0.435403        -1.024643         1.995761
 H         1.462298        -2.380027        -0.312966
 H         2.430568        -1.416239        -1.515962
 H         3.297430        -2.502821        -0.300194
 H         4.249133         0.656180         0.190623
 H         3.234251         2.661073         1.508949
 H         0.635569         1.917917         1.940134
 H         0.284136        -0.794052        -0.996725
 H        -0.516324         0.725688        -0.167583
 H         1.146866         0.698019        -1.019886
 H         1.209508        -1.341193         2.666161
