19
Iteration:   154charge 0 multiplicity 1
 C         2.494864        -1.614512        -0.616057
 C         2.480466        -0.599144         0.544134
 O         3.290095        -0.818377         1.725442
 C         3.529953         0.375710         0.986464
 C         2.855273         1.536754         1.476454
 C         1.506114         1.303879         1.457941
 C         1.124750        -0.092411         0.966257
 C         0.100298        -0.124848        -0.253873
 O         0.543113        -0.956575         1.920486
 H         2.036791        -2.520843        -0.268911
 H         2.111061        -1.162395        -1.488678
 H         3.568391        -1.877312        -0.829824
 H         4.562084         0.507405         0.636797
 H         3.378316         2.533768         1.645261
 H         0.822267         2.167213         1.704415
 H        -0.203695        -1.169956        -0.320917
 H        -0.787295         0.448887        -0.039349
 H         0.491855         0.140316        -1.201320
 H         1.146973        -0.962106         2.594480
