19
Iteration:  1844charge 0 multiplicity 1
 C         2.779940        -1.656345        -0.756082
 C         2.542263        -0.665691         0.404885
 O         3.252273        -0.914626         1.663683
 C         3.559333         0.337760         1.064805
 C         2.720262         1.416480         1.727080
 C         1.445226         1.280692         1.390517
 C         1.074798        -0.074733         0.844368
 C        -0.020829        -0.137206        -0.277424
 O         0.569706        -0.624962         2.085496
 H         2.034529        -2.502978        -0.831465
 H         2.901530        -1.337030        -1.825635
 H         3.705394        -2.245574        -0.403227
 H         4.620726         0.479787         0.661569
 H         3.101614         2.308433         2.272900
 H         0.567941         1.811129         1.703404
 H         0.406025         0.614124        -0.967892
 H        -0.201709        -1.077697        -0.801087
 H        -1.056241         0.124289         0.131356
 H         1.114680        -0.415743         2.797455
