19
Iteration:  2942charge 0 multiplicity 1
 C         2.710706        -1.617125        -0.573288
 C         2.449726        -0.602846         0.489161
 O         3.378350        -0.741150         1.612892
 C         3.501729         0.417267         0.801695
 C         2.724115         1.607053         1.428751
 C         1.383453         1.266762         1.537972
 C         1.105035        -0.105690         1.044753
 C         0.130797        -0.100619        -0.154432
 O         0.502301        -1.053384         2.022557
 H         2.655206        -1.206377        -1.634565
 H         3.648461        -2.114332        -0.471194
 H         2.042239        -2.449614        -0.498797
 H         4.391589         0.568691         0.189460
 H         3.174461         2.579609         1.441934
 H         0.494908         1.687698         2.065168
 H         0.236854         0.742896        -0.836227
 H         0.424591        -0.960592        -0.763649
 H        -0.860650        -0.181824         0.236272
 H         1.192656        -1.196175         2.711504
