19
Iteration:  1310
 C         2.513943        -1.608624        -0.667201
 C         2.507789        -0.644321         0.543666
 O         3.269254        -0.874543         1.815505
 C         3.531559         0.341999         1.045310
 C         2.763767         1.551946         1.540885
 C         1.504715         1.301654         1.437606
 C         1.187131        -0.029513         0.863715
 C         0.105835        -0.078572        -0.232292
 O         0.576984        -0.926780         1.899352
 H         1.801242        -2.434769        -0.552802
 H         2.067555        -1.010914        -1.503437
 H         3.461776        -1.903353        -0.958000
 H         4.609947         0.445861         0.646610
 H         3.215877         2.514277         1.841608
 H         0.686635         2.049862         1.387269
 H         0.090426         0.724746        -0.982479
 H         0.148068        -1.056115        -0.751590
 H        -0.797778         0.014316         0.295843
 H         1.361870        -1.405898         2.267884
