19
Iteration:   603charge 0 multiplicity 1
 C         2.635622        -1.699462        -0.551349
 C         2.532063        -0.656139         0.525481
 O         3.226109        -0.840885         1.843256
 C         3.524947         0.363696         0.921118
 C         2.728321         1.563151         1.197650
 C         1.511586         1.264479         1.589610
 C         1.123864        -0.109081         1.003882
 C         0.182459         0.224220        -0.210277
 O         0.464889        -1.072226         1.876522
 H         1.920447        -2.533410        -0.408731
 H         2.402310        -1.213920        -1.519789
 H         3.642253        -2.109208        -0.516109
 H         4.589225         0.428786         0.711840
 H         3.099400         2.575304         1.127641
 H         0.852333         1.986324         1.991663
 H        -0.562092        -0.578140        -0.287849
 H        -0.268157         1.204913        -0.151384
 H         0.789266         0.074156        -1.086981
 H         1.165777        -1.508132         2.414723
