19
Iteration:   185
 C         2.818487        -1.726937        -0.577575
 C         2.471592        -0.640297         0.433768
 O         3.136929        -1.055856         1.695375
 C         3.440926         0.422474         0.927232
 C         2.703542         1.522481         1.474215
 C         1.413506         1.349413         1.362758
 C         1.079144        -0.081200         0.919454
 C        -0.044023         0.059898        -0.165533
 O         0.793585        -0.802020         2.032713
 H         2.033736        -2.466466        -0.650837
 H         2.909850        -1.407379        -1.576042
 H         3.761367        -2.152320        -0.180459
 H         4.495658         0.440562         0.798940
 H         3.339167         2.304516         1.958677
 H         0.738761         2.075439         1.899386
 H        -0.285057        -0.911040        -0.600589
 H        -0.904283         0.530497         0.293096
 H         0.328954         0.643460        -0.989311
 H         1.649089        -1.070759         2.403253
