19
Iteration:  4066charge 0 multiplicity 1
 C         2.656128        -1.793139        -0.467094
 C         2.546186        -0.645580         0.510454
 O         3.559787        -0.664960         1.554478
 C         3.392163         0.532946         0.672617
 C         2.608501         1.617141         1.448837
 C         1.329297         1.171805         1.587820
 C         1.114291        -0.111004         0.945787
 C         0.029647        -0.117757        -0.194968
 O         0.631557        -0.952251         2.064482
 H         1.788552        -2.379858        -0.404899
 H         2.611729        -1.441809        -1.547497
 H         3.479375        -2.520477        -0.197318
 H         4.223997         0.711127        -0.010012
 H         3.088740         2.425790         1.971566
 H         0.432007         1.525717         2.089953
 H        -0.013525         0.957683        -0.597988
 H         0.072728        -1.028064        -0.808720
 H        -0.814640        -0.182874         0.466594
 H         1.524198        -0.904924         2.587894
