19
Iteration:  1479
 C         2.604670        -1.878990        -0.405929
 C         2.582853        -0.637156         0.450678
 O         3.313270        -0.822307         1.743890
 C         3.471777         0.468865         0.856908
 C         2.752851         1.439415         1.627743
 C         1.433425         1.246093         1.555571
 C         1.119130        -0.033347         0.795273
 C        -0.000620         0.228726        -0.267510
 O         0.608455        -0.944209         1.783474
 H         1.802052        -2.514997         0.079406
 H         2.501664        -1.846950        -1.493882
 H         3.573624        -2.556636        -0.307675
 H         4.416135         0.723947         0.386380
 H         3.358970         2.207921         2.130922
 H         0.737158         1.788264         2.252197
 H         0.490505         0.673441        -1.169942
 H        -0.281336        -0.744756        -0.682397
 H        -0.872418         0.804544         0.252495
 H         1.516204        -1.137777         2.253819
