19
Iteration:  1887
 C         2.642060        -1.369594        -0.705972
 C         2.458686        -0.566559         0.573193
 O         3.186291        -1.031440         1.816318
 C         3.502336         0.277863         1.035382
 C         2.810026         1.473182         1.513572
 C         1.497582         1.397817         1.305439
 C         1.069146        -0.080222         0.917360
 C         0.114742        -0.246356        -0.188524
 O         0.588748        -0.844714         1.950254
 H         1.818615        -2.068902        -1.029174
 H         2.920236        -0.572941        -1.464471
 H         3.665940        -1.872444        -0.582197
 H         4.564496         0.278162         0.662561
 H         3.418555         2.389639         1.715693
 H         0.817843         2.224315         1.477340
 H         0.539074        -0.139181        -1.199739
 H        -0.390529        -1.225101        -0.111544
 H        -0.729897         0.551556        -0.230134
 H         1.391695        -1.053689         2.599727
