19
Iteration:  2525charge 0 multiplicity 1
 C         2.670320        -1.713051        -0.554265
 C         2.479634        -0.619672         0.488619
 O         3.371889        -0.731666         1.678987
 C         3.505405         0.445564         0.934706
 C         2.742782         1.409862         1.601009
 C         1.431515         1.204001         1.577614
 C         1.097928        -0.063596         0.858387
 C         0.115881        -0.045582        -0.355493
 O         0.492520        -0.847650         1.959564
 H         1.733818        -1.833675        -1.117939
 H         3.317702        -1.377557        -1.359703
 H         3.005989        -2.758843        -0.255641
 H         4.515586         0.404676         0.593760
 H         3.242889         2.183391         2.239350
 H         0.560982         1.828227         1.895347
 H         0.691364        -0.049494        -1.339723
 H        -0.354772        -1.027257        -0.289435
 H        -0.645882         0.734279        -0.248285
 H         1.138829        -1.103432         2.559323
