19
Iteration:  3424charge 0 multiplicity 1
 C         2.398101        -1.714061        -0.499382
 C         2.575335        -0.597632         0.495044
 O         3.480325        -0.714237         1.664437
 C         3.486525         0.531458         0.773538
 C         2.611142         1.636605         1.435477
 C         1.349329         1.200713         1.592809
 C         1.194479        -0.115791         0.944473
 C         0.135063        -0.092670        -0.156292
 O         0.694182        -1.099498         1.890289
 H         2.022932        -1.373692        -1.392176
 H         3.363208        -2.169722        -0.775408
 H         1.720001        -2.356242         0.045019
 H         4.436705         0.738162         0.260029
 H         3.034788         2.641804         1.759356
 H         0.487915         1.835143         1.822116
 H         0.359116         0.557636        -0.945473
 H        -0.207105        -1.108714        -0.356288
 H        -0.735953         0.287955         0.431209
 H         1.299849        -1.084764         2.741125
