19
Iteration:  2574
 C         2.797172        -1.763870        -0.525413
 C         2.492539        -0.714707         0.526166
 O         3.340986        -0.741650         1.761859
 C         3.484759         0.360017         0.872669
 C         2.733773         1.543382         1.368004
 C         1.417573         1.299282         1.611258
 C         1.106567        -0.081843         0.996277
 C         0.126625         0.195718        -0.161741
 O         0.432716        -1.085972         1.778477
 H         1.952023        -1.885180        -1.300060
 H         3.815255        -1.543138        -0.934398
 H         2.910833        -2.736912        -0.062266
 H         4.390829         0.362691         0.195423
 H         3.016014         2.577692         1.246896
 H         0.582353         1.884071         1.911035
 H         0.513659         0.997732        -0.795729
 H        -0.120220        -0.756564        -0.659775
 H        -0.719672         0.695930         0.337468
 H         0.928421        -1.281507         2.669214
