19
Iteration:  2905charge 0 multiplicity 1
 C         2.677269        -1.876068        -0.481114
 C         2.632667        -0.625717         0.520407
 O         3.597228        -0.711963         1.556363
 C         3.448349         0.562706         0.792476
 C         2.659036         1.554335         1.605591
 C         1.327412         1.242391         1.607882
 C         1.106576        -0.057146         0.866003
 C        -0.036916        -0.029190        -0.242461
 O         0.515723        -0.979880         1.929469
 H         1.942323        -1.646483        -1.196786
 H         3.764260        -1.877181        -0.884087
 H         2.333352        -2.869300         0.041659
 H         4.217107         0.628375        -0.023344
 H         3.107066         2.424575         2.155547
 H         0.653773         1.331255         2.448424
 H         0.157416         0.522859        -1.162418
 H        -0.385550        -1.054668        -0.403650
 H        -0.975064         0.496987         0.121339
 H         1.176246        -1.002443         2.595987
