19
Iteration:  4694charge 0 multiplicity 1
 C         2.456411        -1.788006        -0.378457
 C         2.553575        -0.664850         0.597324
 O         3.552791        -0.634482         1.597776
 C         3.463595         0.537284         0.671883
 C         2.688371         1.620422         1.390298
 C         1.352108         1.267190         1.511797
 C         1.133499        -0.132935         1.041205
 C         0.068727        -0.022322        -0.179737
 O         0.617878        -1.152585         1.894749
 H         3.493726        -2.214849        -0.626112
 H         1.790554        -2.488358         0.263477
 H         1.875344        -1.347621        -1.252568
 H         4.471033         0.808031         0.220096
 H         3.363046         2.463417         1.645722
 H         0.642029         1.740889         2.198743
 H         0.356306         0.598450        -1.078292
 H        -0.123254        -1.139908        -0.358337
 H        -0.846527         0.583377         0.067941
 H         1.221575        -1.079776         2.678197
