19
Iteration:  2459
 C         2.948074        -1.583986        -0.691021
 C         2.534762        -0.747072         0.521382
 O         3.216019        -0.877481         1.843663
 C         3.437566         0.276985         0.967713
 C         2.736004         1.518410         1.481592
 C         1.443068         1.292353         1.332947
 C         1.141186        -0.113930         0.884356
 C        -0.076617         0.039820        -0.198776
 O         0.552902        -0.875303         1.981584
 H         1.922949        -1.736230        -1.170012
 H         3.587268        -0.962215        -1.307850
 H         3.429671        -2.508725        -0.397909
 H         4.398319         0.507911         0.547436
 H         3.371389         2.410644         1.673955
 H         0.681782         1.769898         1.874984
 H        -0.072413         1.015704        -0.768939
 H        -0.458488        -0.728940        -0.853456
 H        -0.855630         0.316154         0.523728
 H         1.280559        -1.105560         2.599060
