19
Iteration:  2496charge 0 multiplicity 1
 C         2.647948        -1.525882        -0.594105
 C         2.498196        -0.591546         0.536736
 O         3.280581        -0.969780         1.679316
 C         3.481632         0.389523         1.012890
 C         2.781469         1.576412         1.564908
 C         1.435655         1.408420         1.471067
 C         1.119689        -0.118030         0.898747
 C         0.195701        -0.159988        -0.283586
 O         0.501959        -0.919127         1.937458
 H         1.733658        -1.679638        -1.081982
 H         3.252991        -1.317973        -1.482224
 H         2.930988        -2.565027        -0.314871
 H         4.504197         0.240487         0.589314
 H         3.145975         2.579809         1.607447
 H         0.597614         2.033681         1.937042
 H         0.645340         0.154129        -1.182507
 H        -0.093878        -1.203881        -0.434699
 H        -0.729140         0.281537         0.063843
 H         1.126192        -0.914829         2.653107
