19
Iteration:  3874
 C         2.823793        -1.651261        -0.640618
 C         2.474341        -0.733269         0.528408
 O         3.427888        -0.712201         1.663712
 C         3.391725         0.395811         0.773907
 C         2.637192         1.586289         1.320370
 C         1.374030         1.346209         1.437090
 C         1.084195        -0.150627         0.964727
 C         0.033254        -0.049218        -0.006725
 O         0.601771        -1.049666         2.089240
 H         3.238069        -2.674711        -0.263558
 H         1.909364        -1.625421        -1.245181
 H         3.681802        -1.197237        -1.191683
 H         4.367860         0.584667         0.332093
 H         3.146585         2.536888         1.545211
 H         0.528326         1.975113         1.895242
 H         0.257989         0.612307        -0.859012
 H        -0.313628        -1.075657        -0.324990
 H        -0.988185         0.284228         0.363518
 H         1.435596        -1.028454         2.675966
