19
Iteration:  1427
 C         2.593573        -1.718925        -0.548199
 C         2.523526        -0.704432         0.626014
 O         3.433986        -0.829182         1.658133
 C         3.479034         0.377952         0.755089
 C         2.738627         1.631310         1.402269
 C         1.458534         1.268523         1.692895
 C         1.122702        -0.099175         1.078906
 C         0.335473         0.069671        -0.208895
 O         0.274281        -1.018073         1.800815
 H         2.149568        -2.704863        -0.446582
 H         2.001802        -1.422202        -1.437745
 H         3.617367        -1.776192        -0.933017
 H         4.499413         0.411154         0.294455
 H         3.092575         2.575008         1.839674
 H         0.745802         2.082653         2.001046
 H         1.018844         0.719617        -0.803871
 H         0.230266        -0.863312        -0.718509
 H        -0.523696         0.729611        -0.048369
 H         0.374465        -0.969436         2.831631
