19
Iteration:  4904
 C         2.640928        -1.742699        -0.444868
 C         2.494236        -0.713072         0.593928
 O         3.394762        -0.539711         1.755008
 C         3.395481         0.435599         0.679304
 C         2.743072         1.582095         1.209276
 C         1.500094         1.184151         1.560250
 C         1.114497        -0.202547         0.973714
 C         0.048112         0.026674        -0.069316
 O         0.588228        -1.104401         1.887359
 H         3.607619        -1.864599        -0.831671
 H         2.140306        -2.688195        -0.270569
 H         2.238806        -1.274012        -1.360055
 H         4.339014         0.523290         0.116843
 H         3.233904         2.534328         1.523982
 H         0.730194         1.754801         2.062401
 H         0.265986         0.809389        -0.754185
 H        -0.223810        -0.945342        -0.490420
 H        -0.729139         0.602730         0.414066
 H         0.996902        -0.859634         2.781509
