19
Iteration:  4841
 C         2.679933        -1.633359        -0.714185
 C         2.488124        -0.647653         0.473473
 O         3.333312        -0.808472         1.706174
 C         3.400344         0.462398         0.852074
 C         2.733541         1.538157         1.523752
 C         1.408610         1.309673         1.314006
 C         1.072117        -0.142419         0.933867
 C        -0.004871        -0.324789        -0.166448
 O         0.721111        -0.751732         2.171468
 H         3.427573        -2.390294        -0.405571
 H         1.712223        -2.297633        -0.877258
 H         3.027522        -0.974207        -1.570599
 H         4.395895         0.630109         0.364678
 H         3.314840         2.365173         2.005976
 H         0.724718         1.827049         1.962383
 H         0.293412         0.137984        -1.150409
 H        -0.197426        -1.387809        -0.480170
 H        -0.938938         0.041210         0.320479
 H         1.596208        -0.593091         2.692801
