19
Iteration:   310charge 0 multiplicity 1
 C         2.761979        -1.853618        -0.337290
 C         2.508141        -0.619930         0.404404
 O         3.337450        -0.900848         1.672610
 C         3.542593         0.302195         0.844114
 C         2.755863         1.470497         1.478198
 C         1.485747         1.282487         1.474980
 C         1.042747         0.041612         0.908684
 C        -0.048372         0.229217        -0.193774
 O         0.526032        -0.915825         1.861981
 H         2.598549        -2.664993         0.384979
 H         2.043790        -2.012160        -1.192480
 H         3.733156        -1.976226        -0.727712
 H         4.462788         0.492256         0.284001
 H         3.390675         2.206471         2.012994
 H         0.713200         1.872011         2.048668
 H        -0.649838        -0.649470        -0.366161
 H        -0.816552         0.944009         0.112744
 H         0.329357         0.818290        -1.051091
 H         1.353726        -1.061722         2.478873
