19
Iteration:  4246
 C         2.813024        -1.607084        -0.676631
 C         2.525297        -0.655808         0.540387
 O         3.358133        -0.823388         1.649454
 C         3.480888         0.457627         0.830084
 C         2.566720         1.654652         1.214825
 C         1.331937         1.282336         1.485477
 C         1.126828        -0.129830         0.961240
 C        -0.095335        -0.159306         0.008041
 O         0.768702        -1.001912         2.100387
 H         2.160143        -1.300156        -1.502424
 H         3.872540        -1.723816        -0.684000
 H         2.417412        -2.527472        -0.350451
 H         4.536543         0.670580         0.471899
 H         3.017120         2.644984         1.301856
 H         0.474260         1.889901         1.749350
 H        -0.124694         0.673046        -0.691066
 H        -0.464919        -1.147801        -0.350871
 H        -1.002963         0.140636         0.603771
 H         1.660065        -1.096850         2.592586
