19
Iteration:  3717charge 0 multiplicity 1
 C         2.728240        -1.744709        -0.537814
 C         2.553832        -0.634953         0.466812
 O         3.455107        -0.733386         1.571265
 C         3.454071         0.515367         0.738776
 C         2.646672         1.644550         1.432146
 C         1.345795         1.274314         1.571294
 C         1.132171        -0.154145         0.890424
 C        -0.136076        -0.101086        -0.001474
 O         0.683453        -1.002076         1.969510
 H         2.723040        -2.729510        -0.100951
 H         1.869489        -1.749918        -1.247869
 H         3.743349        -1.672220        -0.921836
 H         4.438948         0.564780         0.262587
 H         3.082082         2.600433         1.836693
 H         0.624232         1.765465         2.250343
 H         0.056334         0.429488        -0.896003
 H        -0.488080        -1.117995        -0.135128
 H        -0.882957         0.382315         0.637339
 H         1.486718        -1.160444         2.429693
