19
Iteration:  1967charge 0 multiplicity 1
 C         2.728862        -1.785543        -0.442697
 C         2.498011        -0.586978         0.452157
 O         3.410415        -0.806247         1.587261
 C         3.482161         0.432311         0.862777
 C         2.784960         1.453776         1.599303
 C         1.481732         1.292164         1.670723
 C         0.980654        -0.050194         0.899733
 C         0.079058         0.059909        -0.321427
 O         0.443542        -0.945710         1.880394
 H         2.163399        -2.547583         0.164050
 H         2.111544        -1.915373        -1.326443
 H         3.791086        -2.214943        -0.574892
 H         4.472284         0.547216         0.470596
 H         3.316915         2.299268         1.966425
 H         0.787587         2.025055         2.092348
 H         0.420825         0.975321        -0.834536
 H         0.298647        -0.738569        -1.073110
 H        -1.032141         0.120481        -0.110009
 H         1.137909        -1.168590         2.589682
