19
Iteration:  3099charge 0 multiplicity 1
 C         2.645126        -1.554869        -0.507376
 C         2.542027        -0.634443         0.560412
 O         3.361307        -0.739392         1.737011
 C         3.504967         0.482202         0.859962
 C         2.704899         1.615599         1.205070
 C         1.450131         1.249562         1.468395
 C         1.129335        -0.200752         1.001070
 C         0.040360        -0.015071        -0.088458
 O         0.545904        -1.164436         1.931369
 H         2.246836        -0.990842        -1.303095
 H         3.713794        -1.723809        -0.834862
 H         2.086521        -2.502927        -0.356461
 H         4.411210         0.419586         0.226637
 H         3.244965         2.536405         1.346991
 H         0.710968         1.931559         1.943487
 H         0.407075         0.706130        -0.839747
 H        -0.403153        -0.986949        -0.452376
 H        -0.766144         0.552912         0.517621
 H         1.192215        -1.659824         2.569085
