19
Iteration:   973
 C         2.594296        -1.554352        -0.556084
 C         2.460432        -0.640436         0.580272
 O         3.461122        -0.851062         1.676963
 C         3.506621         0.355337         0.853522
 C         2.706034         1.504908         1.371945
 C         1.418138         1.221011         1.639696
 C         1.069901        -0.108634         1.018390
 C         0.297154         0.057398        -0.277536
 O         0.355342        -0.924829         1.925326
 H         2.181574        -2.573545        -0.398837
 H         2.268671        -1.177802        -1.500754
 H         3.748790        -1.728586        -0.514023
 H         4.368781         0.406741         0.212782
 H         3.122070         2.435564         1.754863
 H         0.822328         1.591419         2.428948
 H         0.829601        -0.133960        -1.297161
 H        -0.403612        -0.848352        -0.363200
 H        -0.170007         1.059896        -0.411280
 H         1.090772        -1.504938         2.392487
