19
Iteration:  4249
 C         2.818721        -1.604187        -0.655209
 C         2.523994        -0.647523         0.507966
 O         3.340087        -0.829165         1.655627
 C         3.485573         0.492914         0.821708
 C         2.577277         1.654254         1.228920
 C         1.364624         1.275589         1.464689
 C         1.095231        -0.131300         0.956710
 C        -0.090959        -0.150947         0.013989
 O         0.765369        -1.028131         2.125832
 H         2.160177        -1.392197        -1.587801
 H         3.998500        -1.639456        -0.750984
 H         2.450014        -2.670027        -0.336856
 H         4.481136         0.707424         0.514384
 H         3.064010         2.666130         1.274825
 H         0.496384         1.912724         1.691186
 H        -0.195889         0.698735        -0.754577
 H        -0.485830        -1.142960        -0.303829
 H        -0.972663         0.215925         0.626749
 H         1.589894        -1.176031         2.559424
