19
Iteration:   619
 C         2.519549        -1.651545        -0.421673
 C         2.439162        -0.677728         0.668500
 O         3.319360        -0.791943         1.805435
 C         3.530607         0.312494         0.953681
 C         2.775256         1.678456         1.191548
 C         1.551360         1.256652         1.614655
 C         1.117866        -0.080360         1.006812
 C         0.190431         0.157011        -0.241631
 O         0.486049        -1.148114         1.683844
 H         1.965299        -2.548348        -0.161746
 H         2.130213        -1.317314        -1.394815
 H         3.569762        -1.953013        -0.595280
 H         4.378299         0.091442         0.260060
 H         3.422277         2.590675         1.182647
 H         0.682896         1.818409         2.115077
 H        -0.566524        -0.625184        -0.322320
 H        -0.334637         1.130146        -0.018338
 H         0.776781         0.306938        -1.171409
 H         1.156261        -1.265039         2.515440
