19
Iteration:  3781
 C         2.584194        -1.615400        -0.603726
 C         2.579988        -0.649750         0.507747
 O         3.537979        -0.715489         1.647686
 C         3.423608         0.492924         0.707973
 C         2.556216         1.647344         1.235289
 C         1.352685         1.175236         1.645224
 C         1.091998        -0.221711         1.034366
 C         0.124808        -0.115256        -0.074457
 O         0.612044        -0.989300         2.087897
 H         1.626542        -2.247781        -0.622318
 H         2.881449        -1.122118        -1.620931
 H         3.301469        -2.443044        -0.520883
 H         4.392386         0.603635         0.228000
 H         2.891135         2.712397         1.453075
 H         0.579846         1.775680         2.130562
 H         0.473314         0.629664        -0.784048
 H         0.028668        -1.053167        -0.680836
 H        -0.941184         0.183131         0.130625
 H         1.371139        -1.188693         2.593303
