19
Iteration:   712
 C         2.639055        -1.674672        -0.542729
 C         2.414285        -0.695818         0.613253
 O         3.359098        -0.810963         1.792729
 C         3.497019         0.333051         0.878130
 C         2.887028         1.523510         1.434655
 C         1.521436         1.280025         1.473530
 C         1.110533        -0.110864         0.937284
 C         0.166970         0.061762        -0.246649
 O         0.345389        -0.893506         1.876799
 H         2.309312        -2.728041        -0.307156
 H         2.272449        -1.368956        -1.543115
 H         3.770992        -1.803217        -0.809438
 H         4.444914         0.107414         0.337942
 H         3.404916         2.433175         1.729962
 H         0.721178         1.977953         1.825633
 H         0.478672        -0.529023        -1.152125
 H        -0.811247        -0.387248         0.021255
 H         0.002993         1.109434        -0.551749
 H         0.852646        -1.009859         2.671121
