19
Iteration:   330
 C         2.794313        -1.956162        -0.330495
 C         2.462800        -0.674793         0.478357
 O         3.343449        -0.781555         1.625127
 C         3.567943         0.386780         0.808417
 C         2.862496         1.544132         1.453996
 C         1.619715         1.320240         1.586276
 C         1.109618        -0.063491         0.901770
 C        -0.090446         0.218285        -0.070586
 O         0.288255        -0.948300         1.725885
 H         2.639439        -2.791317         0.323595
 H         2.284665        -2.146593        -1.286403
 H         3.838163        -1.897860        -0.474936
 H         4.593270         0.413119         0.332352
 H         3.432745         2.455700         1.716202
 H         0.917533         2.079317         2.018947
 H        -0.370682        -0.726114        -0.478838
 H        -0.938892         0.575484         0.477533
 H         0.143951         0.917120        -0.866907
 H         0.988162        -1.365345         2.177096
