19
Iteration:  4366
 C         2.702401        -1.719427        -0.503135
 C         2.529822        -0.616020         0.513511
 O         3.524382        -0.614381         1.543199
 C         3.419521         0.484534         0.624526
 C         2.602946         1.655037         1.207797
 C         1.397361         1.173045         1.653668
 C         1.134245        -0.177091         1.116409
 C         0.008123        -0.074955        -0.089935
 O         0.548003        -1.092293         2.061734
 H         2.293786        -1.401295        -1.479156
 H         3.786696        -1.870420        -0.491293
 H         2.132342        -2.566758        -0.065677
 H         4.285062         0.647786         0.009091
 H         3.070698         2.586040         1.488881
 H         0.711452         1.466897         2.421431
 H         0.418804         0.485468        -0.983117
 H        -0.138414        -1.142088        -0.328869
 H        -0.841555         0.588913         0.174675
 H         1.153996        -1.054765         2.795236
