19
Iteration:   537
 C         2.610080        -1.658586        -0.638339
 C         2.585825        -0.619345         0.486542
 O         3.323080        -0.978170         1.624824
 C         3.533347         0.379218         0.996015
 C         2.813870         1.471071         1.680680
 C         1.561011         1.376556         1.408706
 C         1.095720        -0.015829         0.878783
 C         0.076891        -0.263526        -0.230069
 O         0.375235        -0.623014         1.947750
 H         1.954490        -2.536125        -0.502445
 H         2.503054        -1.149212        -1.637601
 H         3.595187        -2.050164        -0.581448
 H         4.539417         0.426960         0.651987
 H         3.333676         2.216833         2.354565
 H         0.769303         1.937332         1.932681
 H         0.180094        -1.249982        -0.673605
 H        -0.905341        -0.279383         0.244225
 H         0.024419         0.447009        -1.075425
 H         1.068902        -1.035853         2.633190
