19
Iteration:  2192
 C         2.978408        -1.568351        -0.642628
 C         2.539730        -0.624402         0.530676
 O         3.383084        -0.968096         1.625542
 C         3.536692         0.323372         0.953947
 C         2.776955         1.488898         1.539872
 C         1.391229         1.371244         1.414643
 C         1.070782        -0.112910         0.852717
 C        -0.149726        -0.056583        -0.154328
 O         0.394908        -0.850980         2.067308
 H         2.183579        -2.248027        -0.921212
 H         3.313214        -0.957711        -1.495773
 H         3.879777        -2.309146        -0.439753
 H         4.473444         0.480448         0.469132
 H         3.243359         2.380767         2.001854
 H         0.526842         2.018155         1.500958
 H         0.318864         0.313814        -1.093350
 H        -0.682247        -0.995453        -0.376394
 H        -0.975311         0.734016         0.130991
 H         1.097880        -1.038562         2.702173
