19
Iteration:  1731charge 0 multiplicity 1
 C         2.658348        -1.952941        -0.279689
 C         2.488298        -0.580557         0.460375
 O         3.540113        -0.750120         1.483856
 C         3.506742         0.485028         0.819422
 C         2.713079         1.509105         1.649939
 C         1.427717         1.139249         1.634372
 C         1.027330        -0.029796         0.967920
 C         0.247893         0.228125        -0.298637
 O         0.310574        -1.033510         1.774855
 H         2.048961        -2.773877         0.213275
 H         2.180686        -1.734435        -1.287180
 H         3.660545        -2.303317        -0.298603
 H         4.339627         0.661760         0.150399
 H         3.109859         2.432291         2.129405
 H         0.769173         1.776962         2.267319
 H         1.066151         0.495999        -1.029646
 H        -0.332176        -0.634477        -0.755227
 H        -0.409057         1.088560        -0.183046
 H         0.681395        -0.919099         2.696042
