19
Iteration:   743charge 0 multiplicity 1
 C         2.659942        -1.617090        -0.598234
 C         2.575888        -0.686868         0.596738
 O         3.182182        -0.982187         1.855572
 C         3.590571         0.350858         1.109812
 C         2.795844         1.587028         1.199560
 C         1.495337         1.334441         1.379573
 C         1.126050        -0.092588         0.923181
 C        -0.005958         0.114973        -0.189043
 O         0.549080        -0.952389         1.894051
 H         1.768376        -2.332209        -0.624509
 H         2.448622        -1.061143        -1.580925
 H         3.543600        -2.303173        -0.564152
 H         4.675928         0.154588         1.087137
 H         3.255913         2.550601         1.338387
 H         0.697559         1.985416         1.742098
 H         0.298141        -0.547591        -1.090590
 H        -0.940425        -0.281357         0.336929
 H        -0.130282         1.182739        -0.586863
 H         1.388345        -1.155769         2.393533
