19
Iteration:  1486
 C         2.649941        -1.884177        -0.436457
 C         2.547642        -0.646832         0.422881
 O         3.288533        -0.800475         1.712164
 C         3.481872         0.394438         0.883136
 C         2.741867         1.467005         1.627476
 C         1.471917         1.274626         1.543875
 C         1.180487         0.015328         0.812185
 C        -0.004988         0.194259        -0.241440
 O         0.597431        -0.980867         1.791363
 H         1.833326        -2.466932        -0.028159
 H         2.531139        -1.649122        -1.482134
 H         3.576899        -2.387422        -0.112797
 H         4.500302         0.405094         0.549859
 H         3.168862         2.360828         2.130251
 H         0.709179         1.861501         2.094713
 H         0.290048         0.783337        -1.100651
 H        -0.478434        -0.757806        -0.593937
 H        -0.835331         0.731615         0.193074
 H         1.267196        -1.022863         2.442332
