19
Iteration:  4601charge 0 multiplicity 1
 C         2.630764        -1.723151        -0.537370
 C         2.595746        -0.609305         0.537506
 O         3.511919        -0.694561         1.597626
 C         3.536754         0.542195         0.675892
 C         2.645849         1.613335         1.341236
 C         1.442934         1.161663         1.526072
 C         1.063241        -0.219514         0.979407
 C         0.027844        -0.126817        -0.039455
 O         0.505313        -0.944866         2.042241
 H         2.906454        -2.656012        -0.064204
 H         1.633969        -1.856871        -0.941983
 H         3.325786        -1.615305        -1.344362
 H         4.528926         0.590553         0.244210
 H         3.068860         2.523861         1.793688
 H         0.620028         1.720926         2.058501
 H         0.016249         0.740290        -0.783575
 H        -0.173660        -1.063864        -0.587436
 H        -1.016155         0.290572         0.282599
 H         1.065807        -0.968475         2.800583
