19
Iteration:   269
 C         2.472549        -1.622379        -0.689925
 C         2.518812        -0.621498         0.509902
 O         3.243934        -0.927556         1.791970
 C         3.525186         0.314508         0.927396
 C         2.763688         1.521950         1.384476
 C         1.480183         1.327764         1.437743
 C         1.108321        -0.075508         0.966103
 C         0.264737        -0.069719        -0.214081
 O         0.548390        -0.808283         2.053724
 H         1.886386        -2.526764        -0.328017
 H         1.975376        -1.166315        -1.609140
 H         3.435641        -1.956667        -1.124380
 H         4.509543         0.291529         0.541221
 H         3.245179         2.441350         1.820408
 H         0.694606         2.005326         1.856811
 H         0.025331        -1.165661        -0.372657
 H        -0.674071         0.537311        -0.276078
 H         0.951582         0.291202        -1.064800
 H         1.228569        -1.144323         2.673988
