19
Iteration:  2155
 C         2.880919        -1.463049        -0.723909
 C         2.537371        -0.716468         0.479835
 O         3.124695        -0.979432         1.797730
 C         3.540707         0.277243         1.035003
 C         2.760231         1.567628         1.470511
 C         1.420978         1.348588         1.367376
 C         1.086927        -0.099046         0.848146
 C        -0.040142        -0.152102        -0.159659
 O         0.611960        -0.804524         2.038041
 H         2.103239        -2.237816        -0.924389
 H         2.465378        -0.832608        -1.542513
 H         3.882077        -1.752946        -0.776353
 H         4.591600         0.239868         0.621895
 H         3.363150         2.313260         1.964628
 H         0.621740         2.065661         1.660917
 H         0.091522         0.651020        -0.892227
 H        -0.088205        -1.063392        -0.760230
 H        -0.902136         0.002729         0.411910
 H         1.395722        -0.868176         2.562601
