19
Iteration:  1794
 C         2.686966        -1.656941        -0.560033
 C         2.486233        -0.599837         0.501313
 O         3.295585        -0.827638         1.836694
 C         3.494779         0.323139         0.978243
 C         2.844268         1.562873         1.324676
 C         1.559472         1.288232         1.554062
 C         1.091145        -0.048302         0.961676
 C         0.146485         0.098173        -0.235823
 O         0.385022        -1.061856         1.875579
 H         2.201090        -2.595319        -0.286208
 H         2.028999        -1.346216        -1.399854
 H         3.697629        -1.747192        -1.080495
 H         4.480082         0.465167         0.517698
 H         3.292807         2.565509         1.512707
 H         0.733728         2.003539         1.730689
 H         0.365859         0.857570        -1.014478
 H         0.073423        -0.940731        -0.605620
 H        -0.891848         0.268796         0.114568
 H         0.973981        -1.775626         2.333183
