19
Iteration:  4046
 C         2.673086        -1.836778        -0.549136
 C         2.512251        -0.627523         0.473485
 O         3.543931        -0.694207         1.530841
 C         3.386763         0.546433         0.741193
 C         2.615808         1.612861         1.445730
 C         1.316037         1.309033         1.535555
 C         1.119009        -0.183205         1.038943
 C         0.075166        -0.151470        -0.090173
 O         0.585898        -0.950377         2.041210
 H         2.173704        -2.762626        -0.243284
 H         2.273898        -1.466133        -1.475210
 H         3.779589        -1.873933        -0.572868
 H         4.270446         0.765014         0.209209
 H         3.158820         2.513970         1.730870
 H         0.659738         1.912445         2.134835
 H         0.372092         0.734306        -0.790070
 H         0.136690        -1.044557        -0.751459
 H        -0.955931        -0.020735         0.231687
 H         1.239486        -1.338965         2.722479
