19
Iteration:  1424charge 0 multiplicity 1
 C         2.599246        -1.681864        -0.554187
 C         2.536260        -0.740332         0.653600
 O         3.433679        -0.822807         1.653821
 C         3.490347         0.361793         0.759737
 C         2.719572         1.623452         1.376243
 C         1.470411         1.277016         1.684197
 C         1.134499        -0.123218         1.061997
 C         0.339944         0.087194        -0.201566
 O         0.256626        -1.008800         1.810777
 H         2.175276        -2.723683        -0.499681
 H         2.011758        -1.407023        -1.421797
 H         3.752497        -1.720865        -0.902689
 H         4.419706         0.423983         0.281359
 H         3.106654         2.567922         1.815031
 H         0.735311         2.051710         2.105121
 H         0.973037         0.744212        -0.842798
 H         0.167506        -0.933980        -0.606310
 H        -0.606509         0.763377        -0.034811
 H         0.293800        -0.983160         2.810807
