19
Iteration:  2460
 C         2.940076        -1.579735        -0.698510
 C         2.537262        -0.728409         0.528959
 O         3.221867        -0.876077         1.842445
 C         3.442068         0.260909         0.968843
 C         2.733184         1.516991         1.480529
 C         1.444515         1.298114         1.326241
 C         1.133304        -0.118525         0.888770
 C        -0.067575         0.037496        -0.195613
 O         0.548580        -0.878937         1.986708
 H         1.944895        -1.745400        -1.154212
 H         3.588050        -0.988894        -1.312776
 H         3.420842        -2.532053        -0.417910
 H         4.396665         0.505125         0.567980
 H         3.339161         2.435847         1.676148
 H         0.671154         1.792060         1.888700
 H        -0.072461         0.987100        -0.765385
 H        -0.430423        -0.717422        -0.839761
 H        -0.862353         0.328622         0.469477
 H         1.280029        -1.101710         2.534529
