19
Iteration:   141
 C         2.491336        -1.590955        -0.605436
 C         2.636302        -0.664313         0.535034
 O         3.399643        -0.803233         1.789709
 C         3.620474         0.405417         0.888724
 C         2.811884         1.585451         1.452646
 C         1.521686         1.249413         1.526385
 C         1.106678        -0.111276         0.908541
 C         0.115599        -0.169389        -0.222860
 O         0.344632        -0.897575         1.894723
 H         1.910886        -2.479271        -0.357973
 H         1.758190        -1.191143        -1.265160
 H         3.377622        -1.867372        -1.176572
 H         4.576820         0.444618         0.447312
 H         3.236369         2.546118         1.744084
 H         0.686334         1.766796         2.039252
 H        -0.252329        -1.170766        -0.442235
 H        -0.706811         0.474341         0.051006
 H         0.559437         0.280160        -1.101585
 H         0.862849        -0.909248         2.815520
