19
Iteration:  2679charge 0 multiplicity 1
 C         2.762365        -1.666211        -0.690503
 C         2.465685        -0.625122         0.388125
 O         3.380353        -0.761410         1.794942
 C         3.499121         0.338790         0.919282
 C         2.717155         1.498295         1.508689
 C         1.400226         1.229029         1.562086
 C         1.097754        -0.072214         0.927088
 C         0.096718        -0.064308        -0.253900
 O         0.491416        -0.863194         1.969651
 H         3.612485        -1.308550        -1.089680
 H         2.993549        -2.563330        -0.135375
 H         1.882161        -1.725864        -1.347541
 H         4.395193         0.530628         0.228047
 H         3.197223         2.347367         1.984182
 H         0.575507         1.744191         2.067856
 H         0.443884        -0.048414        -1.264915
 H        -0.425088        -0.986743         0.026717
 H        -0.745625         0.626391        -0.043487
 H         1.213302        -1.143564         2.511145
