19
Iteration:  4068charge 0 multiplicity 1
 C         2.639426        -1.806568        -0.465394
 C         2.534202        -0.617561         0.509520
 O         3.555477        -0.658159         1.564014
 C         3.419417         0.541863         0.655143
 C         2.623456         1.616351         1.454751
 C         1.326672         1.136518         1.579939
 C         1.105436        -0.109742         0.947158
 C         0.024044        -0.117987        -0.186318
 O         0.643778        -0.959251         2.067655
 H         1.717238        -2.370046        -0.469977
 H         2.693778        -1.391183        -1.465680
 H         3.500113        -2.453564        -0.147744
 H         4.241095         0.688433         0.028288
 H         3.103004         2.475021         1.949476
 H         0.460077         1.539235         2.055391
 H        -0.024908         0.925973        -0.687426
 H         0.055062        -0.972508        -0.890172
 H        -0.877122        -0.195779         0.438197
 H         1.441661        -0.942657         2.640625
