19
Iteration:   864
 C         2.690307        -1.650637        -0.533649
 C         2.514388        -0.690668         0.573399
 O         3.285598        -0.894277         1.761405
 C         3.577037         0.325358         0.929926
 C         2.780225         1.549593         1.300778
 C         1.468940         1.233655         1.535208
 C         1.070108        -0.092557         0.994722
 C         0.127289         0.159169        -0.236394
 O         0.449508        -0.954293         1.881063
 H         2.078127        -2.587581        -0.361807
 H         2.227150        -1.266980        -1.443183
 H         3.802128        -1.921910        -0.782584
 H         4.605030         0.305827         0.497898
 H         3.229254         2.536401         1.366260
 H         0.593208         1.792731         1.920225
 H        -0.898471         0.541571         0.206610
 H         0.604058         0.918306        -0.973594
 H        -0.064206        -0.818692        -0.805564
 H         0.880247        -0.803884         2.830793
