19
Iteration:  3161charge 0 multiplicity 1
 C         2.653950        -1.843162        -0.425224
 C         2.540588        -0.554995         0.442922
 O         3.489657        -0.744596         1.518926
 C         3.460359         0.596328         0.752169
 C         2.654754         1.550542         1.521453
 C         1.386880         1.192298         1.546471
 C         1.085807        -0.144111         0.992147
 C         0.022989         0.044445        -0.183206
 O         0.586866        -1.053450         2.049295
 H         3.096078        -1.529947        -1.440407
 H         3.275079        -2.598158         0.044054
 H         1.687914        -2.189155        -0.728958
 H         4.301331         1.008711         0.162023
 H         2.950927         2.566155         1.799211
 H         0.549376         1.796964         1.910075
 H         0.420486         0.618582        -1.005349
 H        -0.082878        -0.916186        -0.642611
 H        -0.954258         0.367805         0.011613
 H         1.433143        -1.319516         2.538025
