19
Iteration:  2284
 C         2.681592        -1.884638        -0.426323
 C         2.556281        -0.669769         0.501683
 O         3.384365        -0.717251         1.742176
 C         3.448067         0.436734         0.815719
 C         2.706001         1.522850         1.475528
 C         1.445651         1.182263         1.568186
 C         1.135934        -0.078099         0.903459
 C         0.167525         0.218375        -0.129721
 O         0.428257        -1.026832         1.720685
 H         2.396150        -2.763910         0.227665
 H         1.950703        -1.720139        -1.257866
 H         3.656635        -2.023527        -0.812322
 H         4.473295         0.529449         0.331918
 H         3.225963         2.439258         1.660599
 H         0.630066         1.736818         2.083166
 H         0.384595         1.243420        -0.548290
 H         0.087185        -0.538944        -0.956787
 H        -0.843622         0.394586         0.232850
 H         0.904699        -0.994330         2.622735
