19
Iteration:   693
 C         2.743518        -1.844918        -0.451310
 C         2.456192        -0.735065         0.497649
 O         3.408981        -0.839842         1.632048
 C         3.449811         0.409125         0.763275
 C         2.800240         1.452594         1.577139
 C         1.455149         1.326806         1.553984
 C         1.047609        -0.058138         0.968162
 C         0.221792         0.099975        -0.337319
 O         0.308640        -0.817409         1.968664
 H         2.324579        -2.772555        -0.095033
 H         2.258367        -1.657529        -1.359169
 H         3.819264        -2.079238        -0.635530
 H         4.335787         0.643519         0.098363
 H         3.282009         2.231146         2.222307
 H         0.785546         2.031580         2.159108
 H         0.614230        -0.466196        -1.140379
 H        -0.778988        -0.183913        -0.163048
 H         0.267832         1.106167        -0.644786
 H         1.068704        -1.007054         2.585593
