19
Iteration:  1347
 C         2.596572        -1.709464        -0.509860
 C         2.493290        -0.540876         0.471980
 O         3.196159        -0.873950         1.644966
 C         3.557110         0.361491         0.979569
 C         2.779585         1.491531         1.598475
 C         1.422136         1.281033         1.524025
 C         1.118460         0.027892         0.839792
 C         0.066859         0.007486        -0.277886
 O         0.678726        -0.951624         1.883940
 H         1.968109        -2.579124        -0.203544
 H         2.515003        -1.424787        -1.566605
 H         3.638789        -2.224100        -0.381394
 H         4.562898         0.410940         0.654978
 H         3.301152         2.335737         2.042699
 H         0.637333         1.939474         1.810763
 H         0.349779         0.642665        -1.118478
 H        -0.195894        -1.042168        -0.473887
 H        -0.965271         0.198617         0.141213
 H         1.340960        -0.941513         2.611900
