19
Iteration:  3169
 C         2.587404        -1.806652        -0.513194
 C         2.515960        -0.596182         0.426503
 O         3.559908        -0.655609         1.559254
 C         3.441645         0.522820         0.790776
 C         2.662523         1.560170         1.520226
 C         1.360494         1.262010         1.578812
 C         1.080463        -0.206078         0.986940
 C         0.057146        -0.025738        -0.254785
 O         0.576313        -1.027311         2.085208
 H         3.244335        -1.654278        -1.454366
 H         3.117884        -2.629850        -0.099080
 H         1.603362        -2.218108        -0.738175
 H         4.242811         0.895408         0.175430
 H         3.129120         2.490382         1.924874
 H         0.616611         1.903056         1.983399
 H         0.533957         0.808978        -0.868307
 H        -0.068320        -1.026945        -0.720067
 H        -0.928214         0.329771         0.105027
 H         1.425983        -1.359661         2.456817
