19
Iteration:   804
 C         2.727748        -1.706319        -0.624530
 C         2.518802        -0.615115         0.451011
 O         3.351359        -0.954110         1.640271
 C         3.545818         0.343461         0.947163
 C         2.794129         1.535029         1.583571
 C         1.496498         1.225698         1.602236
 C         1.126464        -0.060073         0.832499
 C         0.023911        -0.144538        -0.307969
 O         0.380935        -0.591266         2.013296
 H         1.792576        -2.227556        -0.646696
 H         3.037433        -1.326410        -1.611551
 H         3.457917        -2.361292        -0.299714
 H         4.566404         0.522092         0.695820
 H         3.390711         2.341126         1.941041
 H         0.679782         1.710668         2.027674
 H        -0.467032        -0.992807         0.051878
 H        -0.732080         0.587149        -0.245706
 H         0.306691        -0.297125        -1.307354
 H         1.008279        -1.024981         2.626868
