19
Iteration:   613
 C         2.547117        -1.643984        -0.492938
 C         2.455534        -0.671618         0.649307
 O         3.278572        -0.808201         1.812578
 C         3.537944         0.297525         0.987864
 C         2.793140         1.647998         1.137214
 C         1.535605         1.271577         1.641116
 C         1.138646        -0.114234         0.995055
 C         0.172184         0.180741        -0.213445
 O         0.490430        -1.118187         1.759749
 H         1.948092        -2.545195        -0.156220
 H         2.318279        -1.395038        -1.592983
 H         3.591078        -1.948118        -0.523478
 H         4.460346         0.350319         0.430115
 H         3.162167         2.686530         1.087185
 H         0.667927         1.690500         2.072304
 H        -0.637970        -0.567949        -0.370754
 H        -0.319676         1.171898        -0.317573
 H         0.801338         0.285797        -1.136807
 H         1.100379        -1.395585         2.406212
