19
Iteration:  2900charge 0 multiplicity 1
 C         2.647632        -1.895044        -0.472333
 C         2.613433        -0.629053         0.527720
 O         3.597336        -0.687265         1.581480
 C         3.482949         0.541415         0.785505
 C         2.645558         1.556739         1.585537
 C         1.320385         1.190260         1.635866
 C         1.089827        -0.056975         0.855666
 C        -0.035029         0.002083        -0.245375
 O         0.539046        -0.973699         1.910405
 H         1.823239        -1.723974        -1.254773
 H         3.581861        -1.778073        -0.930516
 H         2.537451        -2.859567        -0.059404
 H         4.180040         0.764083         0.005766
 H         2.921150         2.426515         2.142781
 H         0.656757         1.595704         2.453589
 H         0.307001         0.370834        -1.273731
 H        -0.311489        -1.075038        -0.279717
 H        -0.799246         0.652317         0.167134
 H         1.313749        -1.171555         2.580139
