19
Iteration:  4323charge 0 multiplicity 1
 C         2.529722        -1.727560        -0.545149
 C         2.490273        -0.600869         0.444296
 O         3.571348        -0.635837         1.506521
 C         3.460782         0.574475         0.769683
 C         2.646113         1.600319         1.410606
 C         1.306761         1.238691         1.493675
 C         1.127046        -0.205872         1.004181
 C         0.181547        -0.219260        -0.094896
 O         0.566789        -0.994768         2.163041
 H         1.615997        -1.887262        -1.132727
 H         3.276550        -1.414913        -1.242549
 H         2.640614        -2.625366        -0.018464
 H         4.351167         0.806801         0.194185
 H         3.101948         2.479086         1.913678
 H         0.607110         1.875972         2.039941
 H         0.410487         0.252392        -1.057540
 H        -0.030365        -1.199214        -0.525004
 H        -0.744274         0.361741         0.085350
 H         1.221653        -1.340034         2.740403
