19
Iteration:  1575
 C         2.665053        -1.531026        -0.715066
 C         2.533836        -0.677197         0.539441
 O         3.293885        -1.070349         1.635748
 C         3.538955         0.327634         1.085921
 C         2.760447         1.461857         1.604558
 C         1.444839         1.305673         1.393145
 C         1.107584        -0.002269         0.888257
 C         0.117741        -0.175070        -0.312895
 O         0.444124        -0.669741         2.079500
 H         2.299975        -2.548636        -0.673990
 H         2.474462        -1.047083        -1.620446
 H         3.773332        -1.819360        -0.934362
 H         4.502625         0.515225         0.629819
 H         3.155053         2.322025         2.116143
 H         0.795017         2.153729         1.664460
 H         0.640511         0.339913        -1.120524
 H         0.037443        -1.205273        -0.606017
 H        -0.884756         0.277925        -0.041484
 H         0.929823        -0.533333         2.846986
