19
Iteration:  4962
 C         2.545087        -1.920346        -0.311702
 C         2.517433        -0.611295         0.499131
 O         3.675600        -0.651406         1.482729
 C         3.431151         0.505718         0.629479
 C         2.620801         1.548799         1.539219
 C         1.309924         1.257485         1.554059
 C         1.083544        -0.097303         0.964506
 C         0.205548         0.032423        -0.219727
 O         0.475601        -0.964074         2.015649
 H         3.465890        -2.043385        -0.937725
 H         2.700738        -2.834421         0.391357
 H         1.583895        -1.963369        -0.854303
 H         4.188438         0.778982        -0.118123
 H         2.979860         2.330758         2.178460
 H         0.453411         1.699423         2.120730
 H         0.882892         0.278968        -1.032504
 H        -0.273845        -0.921244        -0.435968
 H        -0.620423         0.574572         0.144227
 H         1.225299        -1.493161         2.202054
