19
Iteration:  3547charge 0 multiplicity 1
 C         2.474148        -1.683694        -0.538842
 C         2.547236        -0.570750         0.530400
 O         3.409089        -0.782718         1.692458
 C         3.441158         0.534638         0.743270
 C         2.656522         1.623469         1.412968
 C         1.370048         1.262637         1.598374
 C         1.148424        -0.130073         0.971682
 C         0.105487        -0.114797        -0.199506
 O         0.725340        -1.084546         1.935725
 H         1.601866        -1.393875        -1.146048
 H         3.371690        -1.911991        -1.071620
 H         2.162021        -2.547528         0.125740
 H         4.473961         0.694956         0.381917
 H         3.113636         2.552451         1.728682
 H         0.568711         1.742087         2.180224
 H         0.550430         0.559523        -0.999881
 H        -0.010327        -1.146172        -0.522817
 H        -0.814755         0.365245         0.019380
 H         1.483246        -0.965027         2.530157
