19
Iteration:  4608charge 0 multiplicity 1
 C         2.667484        -1.717828        -0.501509
 C         2.546596        -0.640159         0.558244
 O         3.532320        -0.640919         1.562527
 C         3.516255         0.519576         0.691906
 C         2.706784         1.585726         1.323796
 C         1.419612         1.168950         1.569289
 C         1.081194        -0.228305         0.973664
 C        -0.019935        -0.073369        -0.093667
 O         0.459191        -0.962157         2.052345
 H         3.035807        -2.731392        -0.174087
 H         1.691910        -2.060234        -0.898761
 H         3.367425        -1.471375        -1.346966
 H         4.448003         0.679621         0.066111
 H         3.059449         2.545650         1.702886
 H         0.577304         1.619223         2.072661
 H         0.421153         0.578398        -0.837394
 H        -0.335958        -1.008260        -0.594081
 H        -0.734910         0.245335         0.632889
 H         1.153924        -0.984520         2.773507
