19
Iteration:  2131
 C         2.584483        -1.483130        -0.743698
 C         2.479179        -0.586582         0.472923
 O         3.146622        -0.959173         1.779570
 C         3.588503         0.355161         1.134992
 C         2.778791         1.509175         1.522901
 C         1.429156         1.311463         1.365366
 C         1.157045        -0.038148         0.843084
 C         0.086363        -0.205499        -0.281102
 O         0.649727        -0.839746         2.051471
 H         2.133965        -2.452738        -0.482035
 H         1.970479        -1.318117        -1.614088
 H         3.613037        -1.621291        -0.855054
 H         4.654551         0.421281         0.955536
 H         3.340277         2.418280         1.856706
 H         0.683291         1.974416         1.783946
 H         0.245757         0.535100        -1.044187
 H         0.319244        -1.123688        -0.823334
 H        -0.920662        -0.231107         0.069703
 H         1.531264        -1.034418         2.587938
