19
Iteration:  3188charge 0 multiplicity 1
 C         2.526641        -1.686251        -0.606385
 C         2.468109        -0.654013         0.584846
 O         3.601645        -0.688391         1.679407
 C         3.364589         0.489161         0.682790
 C         2.643017         1.586480         1.430352
 C         1.377539         1.231240         1.571703
 C         1.138561        -0.132232         1.005490
 C         0.195495        -0.154027        -0.157796
 O         0.556746        -0.952736         2.005549
 H         3.116239        -1.265684        -1.364759
 H         2.931544        -2.691404        -0.315180
 H         1.548087        -1.762822        -1.119617
 H         4.156995         0.739026        -0.018978
 H         3.086650         2.400079         1.992059
 H         0.613897         1.499903         2.266196
 H         0.431851         0.585575        -0.947832
 H         0.144573        -1.127344        -0.746133
 H        -0.903861         0.042543         0.062936
 H         1.340530        -1.187118         2.603380
