19
Iteration:  4089charge 0 multiplicity 1
 C         2.642876        -1.723550        -0.470187
 C         2.506024        -0.581929         0.447864
 O         3.435807        -0.577751         1.564129
 C         3.463688         0.526293         0.750297
 C         2.729074         1.604806         1.343749
 C         1.400740         1.268842         1.547886
 C         1.062147        -0.198679         1.028710
 C        -0.007825        -0.160776        -0.116663
 O         0.636689        -1.127813         2.021159
 H         1.630950        -2.111372        -0.566760
 H         3.030694        -1.618083        -1.464846
 H         3.125933        -2.534579         0.113544
 H         4.333611         0.759201         0.214698
 H         3.178194         2.556115         1.673611
 H         0.792116         1.877925         2.186766
 H         0.243498         0.846990        -0.562949
 H         0.156482        -1.017621        -0.766114
 H        -1.011704        -0.136085         0.285846
 H         1.363859        -1.018109         2.634198
