19
Iteration:  1256charge 0 multiplicity 1
 C         2.986862        -1.654477        -0.673409
 C         2.427562        -0.737448         0.541505
 O         3.357017        -0.765663         1.639573
 C         3.399239         0.311897         0.776240
 C         2.779773         1.387129         1.537651
 C         1.419720         1.189446         1.597204
 C         1.094023        -0.131464         0.998356
 C         0.077943         0.061521        -0.206691
 O         0.354599        -0.787361         1.988447
 H         2.520336        -2.642304        -0.755264
 H         2.733534        -1.157863        -1.654163
 H         4.000853        -1.828130        -0.667976
 H         4.362604         0.603004         0.282970
 H         3.332727         2.310546         1.736888
 H         0.665917         1.695636         2.274327
 H         0.721562         0.208440        -1.051229
 H        -0.631042        -0.752213        -0.237266
 H        -0.510424         0.868992        -0.152813
 H         0.747773        -0.448098         2.827103
