19
Iteration:  2724
 C         2.764985        -1.469730        -0.649501
 C         2.528818        -0.632061         0.588510
 O         3.273265        -0.983255         1.793903
 C         3.485217         0.330822         0.972902
 C         2.709358         1.560812         1.350191
 C         1.383777         1.344280         1.337788
 C         1.113608        -0.080981         0.909926
 C         0.047701        -0.079791        -0.110151
 O         0.604993        -0.973274         1.949511
 H         3.694372        -1.962513        -0.502142
 H         2.003613        -2.277815        -0.726883
 H         2.731947        -0.841076        -1.535048
 H         4.562197         0.423695         0.626191
 H         3.023266         2.608766         1.486555
 H         0.511733         1.879269         1.626759
 H         0.446415         0.623528        -0.812256
 H        -0.319435        -1.061755        -0.414106
 H        -0.816517         0.346505         0.448245
 H         1.268235        -0.990710         2.613495
