19
Iteration:  3080
 C         2.629550        -1.595592        -0.649875
 C         2.468217        -0.717409         0.540869
 O         3.462509        -0.894779         1.694875
 C         3.492658         0.435903         0.857879
 C         2.615577         1.664528         1.346055
 C         1.352034         1.332835         1.503658
 C         1.088889        -0.131176         1.039905
 C         0.158005        -0.076039        -0.107486
 O         0.596008        -0.985469         1.973241
 H         1.958646        -1.351960        -1.449108
 H         3.734107        -1.610501        -0.904455
 H         2.453763        -2.638461        -0.240497
 H         4.444901         0.596485         0.367484
 H         2.953796         2.674213         1.475778
 H         0.464993         1.970599         1.741759
 H         0.436829         0.594277        -0.940880
 H         0.138593        -1.097900        -0.563516
 H        -0.886517         0.213387         0.223278
 H         1.268618        -1.094515         2.731141
