19
Iteration:  1053
 C         2.646003        -1.602209        -0.527170
 C         2.448894        -0.541253         0.499700
 O         3.225283        -0.931065         1.717578
 C         3.541601         0.395775         1.015783
 C         2.800804         1.499898         1.563158
 C         1.455386         1.353465         1.401171
 C         1.088307        -0.037722         0.867593
 C         0.005299        -0.047154        -0.283021
 O         0.695879        -0.993086         1.933423
 H         1.811649        -2.345384        -0.355130
 H         2.429433        -1.240989        -1.611332
 H         3.564985        -2.090223        -0.521883
 H         4.561202         0.404290         0.584970
 H         3.279666         2.241156         2.181081
 H         0.739924         2.097242         1.815315
 H         0.482139         0.005631        -1.257967
 H        -0.766259        -0.818893        -0.114216
 H        -0.737775         0.838587        -0.221851
 H         1.621896        -1.422834         2.139694
