19
Iteration:  2589
 C         2.694727        -1.689631        -0.490126
 C         2.505264        -0.603892         0.565651
 O         3.316296        -0.677742         1.841696
 C         3.492697         0.376997         0.838941
 C         2.766306         1.618879         1.248627
 C         1.558912         1.155631         1.582781
 C         1.078106        -0.212580         0.990308
 C         0.131226         0.170493        -0.174997
 O         0.383763        -1.130086         1.800645
 H         2.060372        -1.479975        -1.358870
 H         3.671524        -1.747925        -0.953691
 H         2.437016        -2.701105        -0.106426
 H         4.454355         0.496929         0.429215
 H         3.339799         2.518651         1.567120
 H         0.873612         1.840718         2.128958
 H         0.599818         0.995406        -0.794766
 H         0.019069        -0.567980        -0.992163
 H        -0.895210         0.306294         0.156457
 H         1.065066        -1.397251         2.414675
