19
Iteration:  2667charge 0 multiplicity 1
 C         2.727870        -1.698562        -0.585169
 C         2.524361        -0.627038         0.516168
 O         3.410465        -0.796956         1.690566
 C         3.402992         0.456585         0.854882
 C         2.702179         1.490176         1.608996
 C         1.410386         1.176599         1.556386
 C         1.121052        -0.093586         0.834406
 C         0.062685        -0.061563        -0.250863
 O         0.527400        -0.815302         1.945052
 H         3.379304        -1.582269        -1.356512
 H         3.010472        -2.633077        -0.128870
 H         1.840094        -2.057717        -1.158821
 H         4.403786         0.675888         0.436182
 H         3.197630         2.178280         2.270688
 H         0.537931         1.693404         2.026254
 H         0.519403         0.170965        -1.227781
 H        -0.395299        -1.059051        -0.406993
 H        -0.621770         0.792031        -0.097915
 H         1.264513        -0.954174         2.555333
