19
Iteration:  1109charge 0 multiplicity 1
 C         2.767757        -1.579344        -0.632874
 C         2.502376        -0.650625         0.564111
 O         3.491897        -0.851243         1.688216
 C         3.575661         0.280770         0.859038
 C         2.786113         1.452435         1.454321
 C         1.425227         1.195128         1.507721
 C         1.027345        -0.139516         0.940452
 C         0.088020        -0.006749        -0.225256
 O         0.249445        -0.792935         2.002722
 H         2.322252        -2.578328        -0.558840
 H         2.462867        -1.185793        -1.630219
 H         3.828810        -1.766015        -0.743657
 H         4.558840         0.511734         0.364419
 H         3.301690         2.334218         1.800088
 H         0.798622         1.805433         2.139317
 H         0.218043         0.966171        -0.666267
 H         0.341989        -0.608310        -1.050548
 H        -0.921104        -0.020832         0.243944
 H         0.710397        -0.648750         2.937070
