19
Iteration:   651charge 0 multiplicity 1
 C         2.549892        -1.919030        -0.392333
 C         2.537876        -0.644143         0.527392
 O         3.431280        -0.714156         1.665606
 C         3.511056         0.441681         0.816932
 C         2.804689         1.539226         1.561797
 C         1.457190         1.233388         1.545481
 C         1.094543        -0.095931         0.919588
 C         0.195072         0.168567        -0.277003
 O         0.367002        -0.981341         1.797860
 H         2.059909        -2.693337         0.174217
 H         1.956893        -1.766761        -1.277013
 H         3.569471        -2.283077        -0.547121
 H         4.476683         0.471638         0.256645
 H         3.415071         2.359844         2.065337
 H         0.650970         1.848575         2.081773
 H        -0.049295        -0.704407        -0.848376
 H        -0.697506         0.624259         0.156573
 H         0.694164         0.893219        -0.926019
 H         0.906514        -1.171312         2.517605
