19
Iteration:  1361charge 0 multiplicity 1
 C         2.740780        -1.756116        -0.549895
 C         2.486852        -0.638195         0.401991
 O         3.307389        -0.904607         1.658199
 C         3.458643         0.378212         0.922496
 C         2.780575         1.571141         1.604101
 C         1.440548         1.301135         1.558215
 C         1.114672        -0.102069         0.903986
 C         0.065361         0.037068        -0.177471
 O         0.504259        -0.873011         1.868382
 H         1.995741        -2.499738        -0.258664
 H         2.632004        -1.573249        -1.613972
 H         3.808879        -2.051827        -0.299048
 H         4.399319         0.522392         0.395883
 H         3.250520         2.465627         2.042760
 H         0.593563         1.992656         1.906289
 H         0.476575         0.523651        -1.088425
 H        -0.155521        -0.914590        -0.611139
 H        -0.744886         0.750639         0.171231
 H         1.263896        -1.136752         2.464807
