19
Iteration:  1496charge 0 multiplicity 1
 C         2.681353        -1.829632        -0.441044
 C         2.478174        -0.603297         0.439868
 O         3.236285        -0.815836         1.666766
 C         3.578923         0.307899         0.952338
 C         2.819414         1.566156         1.572429
 C         1.458833         1.293054         1.522201
 C         1.106796        -0.038736         0.842075
 C         0.023821         0.149846        -0.194281
 O         0.571365        -0.997861         1.784136
 H         1.910459        -2.571125        -0.378881
 H         2.690499        -1.566994        -1.504647
 H         3.648912        -2.242276        -0.257451
 H         4.621714         0.381301         0.613339
 H         3.270394         2.423313         2.121178
 H         0.590035         1.898245         1.830834
 H         0.239640         0.778625        -1.033728
 H        -0.400273        -0.838342        -0.471107
 H        -0.698965         0.654200         0.377000
 H         0.997544        -0.910265         2.655037
