19
Iteration:   968
 C         2.577392        -1.628505        -0.606283
 C         2.505959        -0.658643         0.554848
 O         3.460304        -0.818175         1.698170
 C         3.459658         0.351868         0.840856
 C         2.722133         1.538356         1.423091
 C         1.409827         1.260128         1.652944
 C         1.099318        -0.126849         1.022102
 C         0.307272         0.050949        -0.273197
 O         0.363593        -0.936765         1.908957
 H         2.052733        -2.534411        -0.298494
 H         2.185267        -1.168315        -1.550654
 H         3.591501        -1.850671        -0.787761
 H         4.437556         0.403639         0.280519
 H         3.130804         2.451056         1.860323
 H         0.666400         1.739518         2.381791
 H         0.940999        -0.035494        -1.077458
 H        -0.294719        -0.794593        -0.392029
 H        -0.277474         0.939692        -0.413682
 H         0.962571        -1.385482         2.413256
