19
Iteration:  1378charge 0 multiplicity 1
 C         2.829449        -1.750526        -0.585896
 C         2.552846        -0.701838         0.576444
 O         3.406367        -0.824385         1.650083
 C         3.491930         0.385046         0.851873
 C         2.739447         1.494245         1.470062
 C         1.437711         1.261121         1.520982
 C         1.068609        -0.088158         0.975443
 C         0.093660         0.157563        -0.233921
 O         0.293236        -0.911832         1.971296
 H         2.209744        -2.670849        -0.632141
 H         2.608750        -1.339243        -1.592937
 H         3.923728        -1.981236        -0.606071
 H         4.455531         0.516006         0.372480
 H         3.340032         2.254870         1.931919
 H         0.745069         1.706209         2.161563
 H         0.512805         0.632142        -1.127852
 H        -0.389548        -0.855961        -0.430692
 H        -0.612071         0.895368         0.138728
 H         1.000509        -1.333823         2.443776
