19
Iteration:  4433
 C         2.591236        -1.712464        -0.483837
 C         2.506083        -0.552597         0.471317
 O         3.405419        -0.651228         1.573249
 C         3.441541         0.470876         0.737111
 C         2.637466         1.645513         1.319660
 C         1.397109         1.265883         1.523683
 C         1.148920        -0.216974         0.998261
 C        -0.070183        -0.101645        -0.101752
 O         0.811426        -1.085398         2.084883
 H         2.866909        -1.517618        -1.540904
 H         3.202725        -2.574452        -0.126810
 H         1.615809        -2.252941        -0.616591
 H         4.389357         0.650065         0.303679
 H         3.083067         2.663570         1.401791
 H         0.493834         1.797647         1.903292
 H         0.073841         0.880893        -0.661643
 H        -0.116903        -1.192280        -0.543117
 H        -0.952067         0.133083         0.620512
 H         1.618259        -1.248211         2.652437
