19
Iteration:  2968
 C         2.652050        -1.506098        -0.701014
 C         2.540569        -0.669810         0.622464
 O         3.288385        -0.889828         1.923239
 C         3.442504         0.439128         0.816573
 C         2.657542         1.682270         1.166956
 C         1.381363         1.248667         1.529991
 C         1.118495        -0.175734         0.988808
 C         0.048948        -0.090476        -0.160308
 O         0.714810        -1.035007         2.007893
 H         2.636966        -0.762880        -1.504393
 H         3.581183        -2.092489        -0.832427
 H         1.884422        -2.256005        -1.036044
 H         4.399083         0.578823         0.263265
 H         3.153996         2.638252         1.495389
 H         0.576688         1.827200         1.963245
 H         0.445611         0.738313        -0.837585
 H         0.064992        -0.930639        -0.884421
 H        -0.842285         0.303163         0.401773
 H         1.509823        -1.257879         2.425179
