19
Iteration:  2420
 C         2.874743        -1.676554        -0.576833
 C         2.558170        -0.540769         0.394970
 O         3.234415        -0.865947         1.659997
 C         3.469550         0.348436         1.026914
 C         2.783164         1.462493         1.523630
 C         1.442126         1.416449         1.482008
 C         1.076171        -0.100182         0.881262
 C        -0.057361         0.010374        -0.201895
 O         0.495288        -0.941048         1.967513
 H         2.116356        -2.309691        -0.932189
 H         3.486005        -1.506202        -1.482518
 H         3.553751        -2.459937        -0.087127
 H         4.506254         0.373541         0.665060
 H         3.376778         2.325696         1.815951
 H         0.599781         2.063499         1.921708
 H         0.253808         0.698355        -0.984300
 H        -0.081568        -1.045169        -0.571326
 H        -1.035405         0.226376         0.306075
 H         1.340437        -1.359362         2.445505
