19
Iteration:  4264charge 0 multiplicity 1
 C         2.870830        -1.648895        -0.625070
 C         2.530151        -0.553055         0.413477
 O         3.278894        -0.749514         1.631731
 C         3.431246         0.478800         0.794056
 C         2.700064         1.666529         1.319254
 C         1.405857         1.284449         1.343458
 C         1.094055        -0.215154         1.019178
 C        -0.169005        -0.109086         0.089180
 O         0.698672        -1.088113         2.127013
 H         2.151842        -1.540424        -1.457842
 H         3.936296        -1.459582        -0.925772
 H         2.914641        -2.672970        -0.093763
 H         4.433663         0.494675         0.311882
 H         3.068003         2.628359         1.555132
 H         0.622894         1.926928         1.723050
 H         0.247837         0.385359        -0.782939
 H        -0.426017        -1.117040        -0.189663
 H        -1.062289         0.330626         0.532613
 H         1.671517        -1.284085         2.444517
