19
Iteration:  2722
 C         2.765653        -1.462613        -0.625018
 C         2.526989        -0.608221         0.594845
 O         3.266841        -1.000301         1.796892
 C         3.479509         0.330215         0.947491
 C         2.709613         1.580997         1.352449
 C         1.394889         1.335138         1.336637
 C         1.133959        -0.089190         0.905257
 C         0.052053        -0.069311        -0.110418
 O         0.591253        -0.993545         1.958757
 H         3.714046        -1.865078        -0.567147
 H         2.074564        -2.326580        -0.756369
 H         2.700541        -0.843459        -1.567682
 H         4.552256         0.363290         0.591655
 H         3.005611         2.617212         1.474022
 H         0.532207         1.932561         1.600326
 H         0.407196         0.600800        -0.893593
 H        -0.294088        -1.075967        -0.327132
 H        -0.842174         0.396037         0.399825
 H         1.227777        -0.978859         2.643907
