19
Iteration:   353
 C         2.675650        -1.884911        -0.402476
 C         2.501333        -0.718005         0.588942
 O         3.378232        -0.697222         1.766956
 C         3.481779         0.356266         0.721556
 C         2.807887         1.568975         1.298863
 C         1.591096         1.247982         1.620116
 C         1.134189        -0.133319         0.948118
 C         0.112960         0.283186        -0.165810
 O         0.299583        -1.028698         1.776936
 H         2.140426        -2.767095        -0.071692
 H         2.149209        -1.530807        -1.314032
 H         3.671757        -2.124355        -0.624456
 H         4.411599         0.284929         0.158779
 H         3.390751         2.445095         1.585646
 H         0.897701         1.775923         2.317394
 H         0.059376        -0.492448        -0.905750
 H        -0.856747         0.341281         0.293504
 H         0.382743         1.224854        -0.648902
 H         0.806359        -1.053124         2.689291
