19
Iteration:  3689
 C         2.462977        -1.714908        -0.547983
 C         2.519872        -0.523388         0.396282
 O         3.374965        -0.693974         1.593530
 C         3.547212         0.511301         0.810910
 C         2.619008         1.625975         1.556366
 C         1.345925         1.280164         1.442159
 C         1.139662        -0.142075         0.899197
 C         0.029799        -0.155534        -0.125344
 O         0.805294        -1.096655         2.114495
 H         2.919227        -2.734884        -0.183801
 H         1.471481        -1.909715        -0.916781
 H         3.199096        -1.642811        -1.443910
 H         4.585680         0.616239         0.318532
 H         2.992665         2.611091         1.892813
 H         0.531474         1.831612         1.888656
 H         0.432920         0.386636        -1.087881
 H        -0.115681        -1.240396        -0.270493
 H        -0.914286         0.297248         0.175967
 H         1.606616        -1.006422         2.619089
