19
Iteration:  2737charge 0 multiplicity 1
 C         2.728757        -1.563593        -0.688231
 C         2.558379        -0.693864         0.511402
 O         3.287734        -0.847263         1.760460
 C         3.509018         0.350477         1.093186
 C         2.681969         1.546300         1.399615
 C         1.365744         1.304745         1.368650
 C         1.101880        -0.147955         0.929039
 C        -0.006431        -0.081744        -0.148625
 O         0.637907        -0.884344         1.982612
 H         3.582485        -2.349749        -0.661493
 H         1.799349        -2.081961        -0.969163
 H         2.990281        -0.986825        -1.546301
 H         4.520935         0.463330         0.709714
 H         3.338780         2.359670         1.755993
 H         0.698442         2.109964         1.696687
 H         0.069724         0.689488        -0.933365
 H        -0.058292        -0.994741        -0.782430
 H        -0.979582         0.185865         0.261179
 H         1.513480        -1.131329         2.506456
