19
Iteration:  3644
 C         2.739186        -1.596761        -0.748457
 C         2.518572        -0.695033         0.536605
 O         3.408425        -0.705894         1.612620
 C         3.459708         0.449287         0.738672
 C         2.664371         1.583102         1.351890
 C         1.397735         1.245208         1.520402
 C         1.115399        -0.141114         1.091450
 C         0.035450        -0.185376        -0.035680
 O         0.547672        -0.958995         2.098879
 H         3.780649        -1.926042        -0.662899
 H         2.043038        -2.443006        -0.739577
 H         2.721112        -0.929338        -1.681049
 H         4.499236         0.503327         0.279721
 H         3.015136         2.612374         1.652506
 H         0.550808         1.712457         2.015085
 H         0.324845         0.285177        -1.053593
 H        -0.404679        -1.176813        -0.143456
 H        -0.727754         0.440734         0.390280
 H         1.295734        -1.218157         2.602421
