19
Iteration:  4793charge 0 multiplicity 1
 C         2.735207        -1.503959        -0.715296
 C         2.556189        -0.658698         0.510369
 O         3.322651        -0.997679         1.673726
 C         3.438621         0.433066         0.955098
 C         2.749551         1.698394         1.377114
 C         1.415448         1.429013         1.283872
 C         1.106057        -0.118161         0.976458
 C        -0.089604        -0.360368        -0.009624
 O         0.639448        -0.847432         2.110940
 H         3.768858        -1.822193        -0.942278
 H         2.267154        -2.391564        -0.358046
 H         2.250006        -0.978367        -1.541173
 H         4.442262         0.463974         0.593172
 H         3.322271         2.543797         1.711250
 H         0.656049         2.230064         1.386312
 H         0.401062        -0.175044        -0.947460
 H        -0.329206        -1.421704        -0.212608
 H        -0.967655         0.313809         0.097810
 H         1.417898        -1.139209         2.627294
