19
Iteration:  4221charge 0 multiplicity 1
 C         2.620786        -1.595512        -0.697388
 C         2.475504        -0.604269         0.510157
 O         3.461926        -0.684601         1.697105
 C         3.434576         0.483046         0.761098
 C         2.686456         1.592431         1.368375
 C         1.366085         1.238433         1.376469
 C         1.107164        -0.161543         0.979588
 C         0.025480        -0.284659        -0.059579
 O         0.697411        -0.991776         2.155983
 H         2.456505        -0.989593        -1.532182
 H         3.530814        -2.089353        -0.540393
 H         1.815278        -2.309686        -0.651479
 H         4.357301         0.782036         0.247066
 H         3.129385         2.493566         1.765927
 H         0.593358         1.851651         1.846913
 H         0.043842         0.559311        -0.713749
 H        -0.011733        -1.238181        -0.537144
 H        -0.959283        -0.247127         0.376274
 H         1.471018        -0.872200         2.726504
