19
Iteration:  4181charge 0 multiplicity 1
 C         2.642892        -1.623952        -0.599840
 C         2.483593        -0.601625         0.505318
 O         3.555604        -0.753492         1.509147
 C         3.376483         0.527658         0.726421
 C         2.618133         1.616484         1.393755
 C         1.337732         1.239402         1.601471
 C         1.098574        -0.062963         1.003963
 C         0.093937        -0.325105        -0.069373
 O         0.610817        -0.894414         2.066974
 H         2.725441        -1.583927        -1.762721
 H         3.639818        -2.074809        -0.359824
 H         1.985107        -2.473877        -0.504402
 H         4.346468         0.603471         0.128434
 H         3.062086         2.432579         1.884878
 H         0.572548         1.692305         2.227612
 H         0.297374         0.025064        -1.104999
 H        -0.078074        -1.466748         0.079129
 H        -0.884784         0.191725         0.278881
 H         1.419128        -1.072402         2.668323
