19
Iteration:  1102charge 0 multiplicity 1
 C         2.701832        -1.557174        -0.621617
 C         2.527536        -0.666130         0.507526
 O         3.437820        -0.889756         1.684823
 C         3.586967         0.338077         0.883367
 C         2.745913         1.496864         1.428961
 C         1.476275         1.185081         1.531584
 C         1.078151        -0.137683         0.934515
 C         0.118159        -0.055674        -0.244059
 O         0.271906        -0.793771         2.030648
 H         2.190522        -2.495903        -0.502877
 H         2.333504        -1.099511        -1.493618
 H         3.825915        -1.727260        -0.763252
 H         4.595166         0.366146         0.502782
 H         3.213449         2.376667         2.004880
 H         0.681958         1.691136         2.093270
 H         0.396219         0.935697        -0.631221
 H         0.227985        -0.759721        -1.087620
 H        -0.864879         0.017945         0.067891
 H         0.781643        -0.481912         2.818537
