19
Iteration:   248
 C         2.596271        -1.495857        -0.590439
 C         2.440869        -0.642668         0.627219
 O         3.330450        -0.999049         1.669283
 C         3.524826         0.265755         0.957857
 C         2.868707         1.531892         1.373517
 C         1.576881         1.426289         1.432924
 C         1.090796        -0.065083         0.978547
 C         0.103214        -0.192746        -0.243982
 O         0.423906        -0.805596         2.036306
 H         1.769838        -2.263655        -0.753485
 H         2.646416        -0.679781        -1.400565
 H         3.627901        -1.955862        -0.655100
 H         4.410914         0.270858         0.390153
 H         3.353868         2.549558         1.496420
 H         0.713417         2.075665         1.714851
 H         0.179715        -1.264431        -0.612558
 H        -0.928620        -0.007437         0.181436
 H         0.253130         0.370332        -1.238266
 H         1.042912        -1.021245         2.668003
