19
Iteration:  4412charge 0 multiplicity 1
 C         2.737320        -1.806810        -0.442262
 C         2.487040        -0.559945         0.509424
 O         3.493986        -0.705884         1.602129
 C         3.453069         0.501417         0.693374
 C         2.608539         1.645207         1.232569
 C         1.392597         1.281539         1.502190
 C         1.049203        -0.116612         1.001393
 C        -0.134383        -0.020958         0.079303
 O         0.730240        -1.168930         1.946053
 H         2.990518        -1.487599        -1.458413
 H         3.517824        -2.467783        -0.034288
 H         1.789033        -2.337721        -0.545077
 H         4.251450         0.751897         0.043853
 H         2.848375         2.671832         1.571885
 H         0.763678         1.974578         2.103795
 H         0.155766         0.781996        -0.663416
 H        -0.054545        -1.084975        -0.262344
 H        -0.966524         0.454550         0.664097
 H         1.562605        -1.215933         2.388607
