19
Iteration:  4772
 C         2.839351        -1.542643        -0.659966
 C         2.459326        -0.667861         0.498398
 O         3.355420        -0.855711         1.677696
 C         3.519315         0.342661         0.914605
 C         2.686272         1.498195         1.353251
 C         1.359825         1.276197         1.274176
 C         1.064612        -0.092295         0.918206
 C        -0.067226        -0.141436        -0.017574
 O         0.637553        -0.847944         2.177475
 H         3.895515        -1.321217        -0.967751
 H         2.885195        -2.660158        -0.474766
 H         2.181295        -1.280880        -1.540154
 H         4.464668         0.539258         0.453719
 H         3.120132         2.473355         1.488211
 H         0.684613         2.060971         1.641947
 H         0.025323         0.253674        -0.994273
 H        -0.396217        -1.164967        -0.334967
 H        -0.941690         0.288449         0.465471
 H         1.415520        -0.873344         2.712291
