19
Iteration:  1772charge 0 multiplicity 1
 C         2.552419        -1.733292        -0.496879
 C         2.500247        -0.697663         0.618629
 O         3.265446        -0.719756         1.798411
 C         3.554349         0.386949         0.853668
 C         2.762217         1.609414         1.365481
 C         1.486657         1.228452         1.574384
 C         1.114187        -0.179959         0.976990
 C         0.278008         0.198097        -0.203931
 O         0.457907        -1.086153         1.734445
 H         2.159252        -2.713656        -0.159760
 H         1.765840        -1.531549        -1.237977
 H         3.548227        -1.865452        -1.107310
 H         4.549023         0.385335         0.364844
 H         3.027549         2.679815         1.666618
 H         0.750435         1.747151         2.211645
 H         0.939553         0.708304        -0.953586
 H        -0.231698        -0.701533        -0.601119
 H        -0.562868         0.861771         0.112671
 H         1.061940        -1.290443         2.417143
