19
Iteration:  4389
 C         2.737321        -1.825831        -0.513709
 C         2.533085        -0.652646         0.486381
 O         3.420105        -0.509727         1.600864
 C         3.416614         0.535552         0.615846
 C         2.684035         1.646715         1.270847
 C         1.483491         1.226457         1.617424
 C         1.171493        -0.254092         0.987959
 C        -0.109439        -0.063906         0.083111
 O         0.552315        -1.154043         1.971291
 H         2.833531        -1.382083        -1.520025
 H         3.727719        -2.158915        -0.171911
 H         1.908781        -2.540940        -0.445212
 H         4.290535         0.818918         0.131579
 H         3.139795         2.621151         1.440105
 H         0.666337         1.852785         1.970895
 H         0.220121         0.688596        -0.705302
 H        -0.411611        -1.063006        -0.291544
 H        -0.674158         0.685334         0.678085
 H         1.302679        -1.118088         2.676728
