19
Iteration:  3675
 C         2.499594        -1.609732        -0.573309
 C         2.472608        -0.577463         0.528966
 O         3.387387        -0.762334         1.553701
 C         3.473728         0.498989         0.826242
 C         2.688108         1.634562         1.419880
 C         1.362562         1.303482         1.515137
 C         1.064784        -0.140050         1.052613
 C         0.071940        -0.261586        -0.233349
 O         0.819207        -1.056724         2.082311
 H         2.960914        -2.383048        -0.107234
 H         1.473757        -1.899561        -0.702773
 H         2.961433        -1.171349        -1.463724
 H         4.499278         0.678305         0.397592
 H         3.077596         2.606069         1.838963
 H         0.571617         1.915172         1.972994
 H         0.521489         0.290863        -1.091689
 H        -0.257101        -1.206081        -0.624567
 H        -0.827016         0.239955         0.047154
 H         1.680182        -1.013247         2.622212
