19
Iteration:  3017charge 0 multiplicity 1
 C         2.787860        -1.624725        -0.673004
 C         2.562677        -0.607637         0.455956
 O         3.413941        -0.869279         1.643301
 C         3.433077         0.419209         0.883119
 C         2.703245         1.593250         1.592028
 C         1.428222         1.380191         1.467677
 C         1.057785        -0.058482         0.901652
 C        -0.115288        -0.228697        -0.137671
 O         0.588088        -0.909680         2.002038
 H         2.353698        -1.450198        -1.719535
 H         3.855273        -1.851170        -0.733557
 H         2.308506        -2.573798        -0.400892
 H         4.428066         0.601399         0.532671
 H         3.183561         2.476033         1.965424
 H         0.720464         2.040227         2.012862
 H         0.113199        -0.117734        -1.181713
 H        -0.219759        -1.296125         0.045709
 H        -0.952038         0.333565         0.205464
 H         1.446079        -1.038426         2.567617
