19
Iteration:  4747charge 0 multiplicity 1
 C         2.848664        -1.734761        -0.657433
 C         2.510262        -0.707827         0.500246
 O         3.295211        -0.793245         1.737145
 C         3.463982         0.468705         0.712227
 C         2.699337         1.640780         1.363630
 C         1.433550         1.219880         1.477459
 C         1.071139        -0.169139         0.919422
 C        -0.066113        -0.092808        -0.086980
 O         0.618449        -0.845730         2.134024
 H         3.792984        -1.537806        -1.203115
 H         3.073218        -2.709232        -0.293586
 H         2.066681        -1.556426        -1.384538
 H         4.448043         0.542221         0.161464
 H         3.252282         2.372445         1.947001
 H         0.720935         1.787269         2.070874
 H        -0.094975         0.687751        -0.894482
 H        -0.328244        -0.897966        -0.838649
 H        -0.946083         0.068439         0.591009
 H         1.424670        -0.896452         2.665715
