19
Iteration:  1791
 C         2.643357        -1.670238        -0.557952
 C         2.511863        -0.595348         0.496102
 O         3.283514        -0.794194         1.842461
 C         3.481094         0.335298         0.969355
 C         2.850305         1.546966         1.306957
 C         1.547721         1.277317         1.574334
 C         1.106307        -0.047818         0.954092
 C         0.180947         0.097803        -0.231975
 O         0.388362        -1.089850         1.871989
 H         2.244130        -2.586753        -0.221811
 H         2.080054        -1.353438        -1.370226
 H         3.638225        -1.691053        -1.106557
 H         4.518882         0.485609         0.569055
 H         3.334120         2.517277         1.482014
 H         0.737616         1.951251         1.743410
 H         0.382923         0.829213        -0.973635
 H         0.023999        -0.861311        -0.614296
 H        -0.849158         0.403606         0.114636
 H         0.837655        -1.747096         2.322356
