19
Iteration:   365charge 0 multiplicity 1
 C         2.537451        -1.758501        -0.404073
 C         2.515960        -0.738073         0.616336
 O         3.413609        -0.729256         1.751483
 C         3.515767         0.328597         0.718425
 C         2.731680         1.465416         1.214479
 C         1.434369         1.196652         1.649935
 C         1.070521        -0.093103         1.013995
 C         0.288042         0.268181        -0.229690
 O         0.397680        -1.012587         1.846219
 H         1.942913        -2.623477        -0.083367
 H         2.247812        -1.452099        -1.426847
 H         3.545848        -2.081772        -0.464468
 H         4.452572         0.522413         0.265215
 H         3.214200         2.403360         1.434182
 H         0.850997         1.953552         2.195412
 H         0.312810        -0.414446        -1.069752
 H        -0.728927         0.466885         0.040924
 H         0.679007         1.230148        -0.603991
 H         0.932777        -1.039786         2.694645
