19
Iteration:  2652charge 0 multiplicity 1
 C         2.653265        -1.791973        -0.443038
 C         2.574755        -0.652764         0.481362
 O         3.405812        -0.841575         1.531686
 C         3.533229         0.520205         0.883041
 C         2.678615         1.513666         1.693306
 C         1.359145         1.318359         1.492446
 C         1.070579        -0.160609         0.904697
 C         0.104742        -0.022478        -0.340305
 O         0.537101        -0.901046         1.946829
 H         3.286174        -1.267961        -1.324249
 H         3.211760        -2.622623         0.037542
 H         1.615685        -1.963756        -0.703634
 H         4.429436         0.741426         0.343650
 H         3.051346         2.367423         2.298308
 H         0.564832         1.717322         2.134375
 H         0.641957         0.628713        -1.112571
 H        -0.438638        -0.954939        -0.581572
 H        -0.754893         0.539415         0.037309
 H         1.176533        -0.866079         2.647184
