19
Iteration:  2247
 C         2.508710        -1.658535        -0.488828
 C         2.494526        -0.589053         0.588267
 O         3.375955        -0.854950         1.723637
 C         3.449318         0.478683         0.855194
 C         2.775589         1.623951         1.481285
 C         1.458820         1.336064         1.537771
 C         1.037986        -0.123276         0.964951
 C         0.258559         0.020597        -0.327005
 O         0.516944        -1.107817         1.882961
 H         1.604967        -2.245388        -0.426426
 H         2.321387        -1.255167        -1.487381
 H         3.382948        -2.402961        -0.593907
 H         4.444282         0.556770         0.484557
 H         3.236907         2.553846         1.876168
 H         0.768074         1.873097         2.166710
 H         1.027030         0.273410        -1.060045
 H         0.059275        -1.016527        -0.650114
 H        -0.674830         0.646019        -0.197117
 H         1.298677        -1.507485         2.344240
