19
Iteration:   962
 C         2.561672        -1.697958        -0.642554
 C         2.529631        -0.695374         0.538523
 O         3.446141        -0.790402         1.711163
 C         3.437794         0.385292         0.832482
 C         2.725179         1.578364         1.495052
 C         1.421739         1.274725         1.661223
 C         1.129217        -0.121317         1.016239
 C         0.306624         0.043975        -0.267473
 O         0.363103        -0.953214         1.887813
 H         1.914745        -2.528091        -0.313035
 H         2.107057        -1.259219        -1.509677
 H         3.574260        -2.051140        -1.062870
 H         4.396267         0.505717         0.358004
 H         3.255684         2.438403         1.895976
 H         0.660866         1.854056         2.124653
 H         1.138503         0.182011        -1.047483
 H        -0.355391        -0.872156        -0.411694
 H        -0.411284         0.894956        -0.316195
 H         0.986494        -1.345808         2.599548
