19
Iteration:  3691
 C         2.473288        -1.738217        -0.565178
 C         2.536762        -0.516666         0.381696
 O         3.379722        -0.686050         1.599825
 C         3.526238         0.520595         0.826033
 C         2.626892         1.617312         1.550770
 C         1.347651         1.266721         1.441431
 C         1.151231        -0.122396         0.893687
 C         0.025071        -0.149032        -0.103824
 O         0.796265        -1.092737         2.103705
 H         2.930538        -2.795078        -0.134777
 H         1.421652        -1.902154        -0.910163
 H         3.251460        -1.662533        -1.393961
 H         4.483717         0.621285         0.309492
 H         3.012736         2.542042         1.900949
 H         0.475142         1.779256         1.852167
 H         0.429204         0.373356        -1.020963
 H        -0.154065        -1.250730        -0.262185
 H        -0.945885         0.333025         0.242382
 H         1.602274        -0.979483         2.563655
