19
Iteration:   995
 C         2.857926        -1.583298        -0.541797
 C         2.497727        -0.711638         0.568399
 O         3.377358        -0.853136         1.672787
 C         3.426822         0.377867         0.800836
 C         2.806724         1.538496         1.456282
 C         1.508867         1.236385         1.613462
 C         1.037828        -0.178271         0.975825
 C         0.052430         0.134370        -0.252517
 O         0.350789        -0.962311         1.968205
 H         2.229204        -2.500231        -0.558623
 H         2.654100        -1.036203        -1.449632
 H         3.956049        -1.931848        -0.423214
 H         4.316358         0.385154         0.215143
 H         3.256312         2.515398         1.707997
 H         0.697331         1.891966         1.840076
 H         0.517203        -0.149366        -1.296775
 H        -0.820408        -0.604171        -0.347303
 H        -0.157084         1.224469        -0.340261
 H         0.994204        -1.386798         2.457820
