19
Iteration:  1354
 C         2.664061        -1.730374        -0.524704
 C         2.512924        -0.578058         0.445821
 O         3.244287        -0.887954         1.638700
 C         3.509172         0.348719         0.948915
 C         2.732184         1.548646         1.614593
 C         1.463380         1.295566         1.565896
 C         1.123166        -0.067011         0.896607
 C         0.056023         0.030496        -0.232460
 O         0.587183        -0.899755         1.857550
 H         2.002537        -2.580975        -0.292010
 H         2.609760        -1.653199        -1.643496
 H         3.621784        -2.021608        -0.281739
 H         4.525757         0.451902         0.426308
 H         3.350873         2.347282         2.029182
 H         0.590051         1.923968         1.702740
 H         0.388631         0.617959        -1.096849
 H        -0.157552        -1.060707        -0.486344
 H        -0.845515         0.469690         0.123129
 H         1.435159        -0.932271         2.499613
