19
Iteration:  3257
 C         2.823458        -1.601899        -0.532173
 C         2.505982        -0.640296         0.484552
 O         3.367088        -0.792720         1.631856
 C         3.430410         0.484799         0.762338
 C         2.655503         1.592023         1.416023
 C         1.361110         1.130192         1.487534
 C         1.102191        -0.187812         0.854542
 C        -0.210578        -0.067846         0.015501
 O         0.799595        -0.909803         2.002842
 H         3.940913        -1.845320        -0.392263
 H         2.240326        -2.461009        -0.460798
 H         2.804001        -1.100806        -1.450911
 H         4.330743         0.484627         0.155230
 H         3.123881         2.519924         1.779942
 H         0.564067         1.581384         2.123212
 H        -0.047133        -0.011160        -1.127937
 H        -0.921707        -0.910294         0.147245
 H        -0.736554         0.852792         0.324001
 H         1.583011        -1.246035         2.382410
