19
Iteration:  3835charge 0 multiplicity 1
 C         2.658840        -1.751570        -0.467747
 C         2.532669        -0.563518         0.418423
 O         3.405016        -0.684607         1.555422
 C         3.451971         0.508794         0.798410
 C         2.636507         1.584264         1.425844
 C         1.373153         1.277184         1.613999
 C         1.124727        -0.102637         0.933284
 C        -0.013563        -0.153332        -0.120138
 O         0.714338        -1.008249         1.958474
 H         2.177104        -2.719147        -0.213214
 H         2.136024        -1.754427        -1.439732
 H         3.713871        -2.007974        -0.552008
 H         4.407053         0.661107         0.304318
 H         3.089316         2.536678         1.813522
 H         0.791474         1.746108         2.377286
 H         0.070863         0.013893        -1.183176
 H        -0.432843        -1.180663         0.095279
 H        -0.888679         0.442512         0.279582
 H         1.421983        -1.100191         2.560243
