19
Iteration:  1964
 C         2.752873        -1.774742        -0.464197
 C         2.481893        -0.606192         0.452949
 O         3.411765        -0.835976         1.604135
 C         3.469471         0.435336         0.857723
 C         2.804772         1.468742         1.601625
 C         1.489946         1.297074         1.643056
 C         0.953981        -0.055046         0.896179
 C         0.082188         0.068884        -0.313318
 O         0.440588        -0.940836         1.903607
 H         2.258350        -2.522195         0.154825
 H         2.171893        -1.884751        -1.364516
 H         3.810268        -2.166985        -0.524893
 H         4.513502         0.614928         0.497199
 H         3.267005         2.364784         2.019772
 H         0.822354         2.061040         2.078087
 H         0.436628         0.947686        -0.836451
 H         0.103918        -0.724717        -1.054139
 H        -1.035839         0.045142        -0.134659
 H         1.149187        -1.179887         2.447289
