19
Iteration:  2311charge 0 multiplicity 1
 C         2.892731        -1.890961        -0.380946
 C         2.483354        -0.687189         0.531253
 O         3.383425        -0.718632         1.644654
 C         3.483746         0.425998         0.801045
 C         2.799276         1.550422         1.447597
 C         1.566460         1.147138         1.646584
 C         1.014538        -0.061161         0.896119
 C         0.026086         0.273329        -0.260981
 O         0.271437        -1.026700         1.841537
 H         3.013462        -2.752394         0.225023
 H         2.114167        -1.982348        -1.109266
 H         3.883152        -1.532263        -0.844625
 H         4.493820         0.410162         0.472246
 H         3.356507         2.463366         1.777599
 H         0.914394         1.577255         2.382261
 H         0.203670         1.144920        -0.927768
 H        -0.206380        -0.487684        -1.017557
 H        -0.986819         0.443706         0.182015
 H         1.092696        -1.318033         2.405391
