19
Iteration:   336
 C         2.755976        -1.959408        -0.359591
 C         2.458661        -0.725165         0.512287
 O         3.342430        -0.746623         1.656203
 C         3.536676         0.396000         0.808227
 C         2.946313         1.635955         1.430948
 C         1.623769         1.245495         1.582117
 C         1.101535        -0.061451         0.940467
 C        -0.052602         0.207765        -0.088047
 O         0.275010        -0.954193         1.701217
 H         2.571784        -2.892500         0.250817
 H         2.342321        -2.080662        -1.362024
 H         3.905580        -1.933465        -0.519594
 H         4.447918         0.499410         0.227599
 H         3.422467         2.551857         1.727140
 H         0.921488         1.915081         2.000874
 H        -0.413135        -0.741291        -0.601903
 H        -0.994665         0.530690         0.467113
 H         0.113105         1.101162        -0.738214
 H         0.914921        -1.471133         2.400924
