19
Iteration:  1821charge 0 multiplicity 1
 C         2.798408        -1.611155        -0.538855
 C         2.479492        -0.670528         0.530593
 O         3.304410        -0.983156         1.702712
 C         3.472333         0.343336         0.928597
 C         2.763321         1.436969         1.520571
 C         1.447170         1.352029         1.406334
 C         1.120910        -0.045485         0.867894
 C         0.032802        -0.010022        -0.226758
 O         0.503827        -0.821845         1.944368
 H         2.231363        -2.588807        -0.583282
 H         2.537790        -1.108209        -1.536995
 H         3.852871        -1.888295        -0.520121
 H         4.486900         0.566849         0.561135
 H         3.308618         2.187570         2.068421
 H         0.648822         1.951718         1.797879
 H         0.172830         0.905967        -0.829256
 H        -0.092677        -0.904111        -0.885328
 H        -0.902744         0.021037         0.377163
 H         1.008672        -0.677540         2.833268
