19
Iteration:  3294
 C         2.569845        -1.633917        -0.703020
 C         2.481012        -0.621597         0.497456
 O         3.326103        -0.764032         1.567310
 C         3.445390         0.525319         0.841581
 C         2.721878         1.642190         1.547423
 C         1.410842         1.388941         1.485831
 C         1.123079        -0.167128         1.014337
 C         0.067904        -0.318472        -0.056170
 O         0.738976        -1.005351         2.035724
 H         3.304130        -2.378304        -0.484645
 H         1.585473        -2.231133        -0.875598
 H         2.870822        -1.214867        -1.736983
 H         4.423616         0.693539         0.329622
 H         2.988223         2.699319         1.599892
 H         0.600562         2.086450         1.652950
 H         0.425754         0.099820        -0.949313
 H        -0.000996        -1.403548        -0.186038
 H        -0.896404         0.147163         0.297520
 H         1.383428        -0.838237         2.677546
