19
Iteration:     2
 C         2.639081        -1.682546        -0.543431
 C         2.501162        -0.644180         0.527664
 O         3.317914        -0.834036         1.696409
 C         3.495057         0.363362         0.891826
 C         2.768797         1.557638         1.448501
 C         1.457275         1.292711         1.479010
 C         1.104354        -0.088510         0.929914
 C         0.092342        -0.025984        -0.202053
 O         0.530797        -0.922562         1.940829
 H         2.052571        -2.563403        -0.289594
 H         2.284891        -1.316406        -1.485996
 H         3.708538        -1.962513        -0.597925
 H         4.457203         0.491069         0.439028
 H         3.282076         2.451026         1.779707
 H         0.700915         1.966042         1.866973
 H        -0.108634        -1.054249        -0.536786
 H        -0.825177         0.445401         0.167877
 H         0.448576         0.580161        -1.030244
 H         1.280720        -1.069317         2.613028
