19
Iteration:  2095
 C         2.653718        -1.625493        -0.566673
 C         2.577726        -0.637731         0.569456
 O         3.406227        -0.935958         1.639664
 C         3.503328         0.421364         0.892576
 C         2.738127         1.500672         1.635693
 C         1.434524         1.287347         1.459668
 C         1.051046        -0.078913         0.854692
 C         0.074471        -0.039563        -0.272832
 O         0.446852        -0.874976         1.939331
 H         2.268290        -2.545869        -0.221241
 H         2.541300        -1.343200        -1.579980
 H         3.780804        -1.887109        -0.533227
 H         4.464490         0.706546         0.489963
 H         3.322960         2.301371         2.053837
 H         0.570391         1.826685         1.846055
 H         0.500063         0.367475        -1.199905
 H        -0.317471        -1.055003        -0.303646
 H        -0.767268         0.636770         0.119421
 H         1.148214        -0.835033         2.688951
