19
Iteration:  4428
 C         2.602039        -1.692241        -0.437361
 C         2.521056        -0.570145         0.449831
 O         3.439391        -0.681056         1.574780
 C         3.454407         0.501139         0.726001
 C         2.644162         1.621174         1.276903
 C         1.354433         1.254463         1.564037
 C         1.099868        -0.170298         1.020787
 C        -0.083071        -0.084616        -0.056832
 O         0.816324        -1.094665         2.036404
 H         2.980730        -1.478026        -1.449667
 H         3.256254        -2.448817         0.030726
 H         1.739615        -2.360570        -0.571301
 H         4.486957         0.608753         0.286759
 H         3.166303         2.553375         1.294287
 H         0.477048         1.827418         1.787698
 H         0.089102         0.754328        -0.687650
 H        -0.424160        -0.955824        -0.581350
 H        -0.992975         0.053220         0.493733
 H         1.585315        -1.319031         2.594157
