19
Iteration:  1908
 C         2.757165        -1.429729        -0.812588
 C         2.504712        -0.717305         0.588344
 O         3.158193        -0.924402         1.842276
 C         3.580703         0.256042         1.120850
 C         2.827770         1.582354         1.369306
 C         1.513481         1.342648         1.347354
 C         1.149933        -0.091109         0.899927
 C        -0.020458        -0.081585        -0.251431
 O         0.511816        -0.967548         2.066177
 H         2.002678        -2.226586        -0.715867
 H         2.526555        -0.662471        -1.606124
 H         3.791406        -1.787985        -1.021491
 H         4.637027         0.262853         0.722374
 H         3.293986         2.520602         1.786637
 H         0.682587         1.959443         1.646993
 H         0.422630         0.166977        -1.241092
 H        -0.474677        -1.083209        -0.344645
 H        -0.824348         0.738135        -0.233891
 H         1.018991        -0.829903         2.841452
