19
Iteration:   831
 C         2.636209        -1.581302        -0.653929
 C         2.449934        -0.704448         0.616583
 O         3.459026        -0.915591         1.721305
 C         3.506038         0.302033         0.843282
 C         2.797599         1.480739         1.546700
 C         1.466832         1.364536         1.366371
 C         1.048904        -0.110011         1.022908
 C         0.244967        -0.048309        -0.265940
 O         0.319387        -0.795589         2.017151
 H         1.877869        -2.423549        -0.696155
 H         2.449721        -0.918811        -1.522404
 H         3.664591        -2.126671        -0.830698
 H         4.421281         0.466734         0.204099
 H         3.491101         2.172217         2.056585
 H         0.605926         1.994118         1.754558
 H        -0.794425        -0.592777        -0.172909
 H         0.037020         1.034687        -0.619896
 H         0.740262        -0.707331        -1.064519
 H         0.802955        -0.826534         2.871544
