19
Iteration:  1608charge 0 multiplicity 1
 C         2.766354        -1.669980        -0.592680
 C         2.489604        -0.597439         0.445174
 O         3.172737        -0.926993         1.689582
 C         3.557489         0.359482         0.993626
 C         2.812796         1.406712         1.699207
 C         1.528319         1.335480         1.421831
 C         1.170649         0.061316         0.804738
 C        -0.084713        -0.147924        -0.221469
 O         0.549846        -0.794345         1.878753
 H         2.091263        -2.463382        -0.352576
 H         2.482007        -1.343228        -1.545621
 H         3.893876        -1.862547        -0.450322
 H         4.587593         0.553951         0.676617
 H         3.146592         2.078829         2.445914
 H         0.899925         2.116393         1.799696
 H         0.029828         0.238333        -1.239890
 H        -0.429364        -1.145579        -0.125233
 H        -0.938135         0.542401         0.088332
 H         1.346300        -1.011009         2.496494
