19
Iteration:   208
 C         2.917884        -1.725394        -0.686986
 C         2.536162        -0.705822         0.366730
 O         3.256981        -0.908872         1.721716
 C         3.564351         0.271444         0.977474
 C         2.705635         1.501851         1.495249
 C         1.442419         1.213148         1.366579
 C         1.117083        -0.098243         0.826781
 C        -0.166812         0.033193        -0.104230
 O         0.526109        -0.646688         2.116825
 H         2.048163        -2.242939        -1.006852
 H         3.108520        -1.143187        -1.524105
 H         3.785209        -2.346796        -0.362239
 H         4.570814         0.356908         0.498251
 H         3.314797         2.307061         1.950293
 H         0.665468         1.861467         1.834832
 H        -0.303845        -0.831002        -0.733692
 H        -0.912817         0.189859         0.653539
 H        -0.097647         0.825330        -0.790190
 H         1.445714        -0.835977         2.664548
