19
Iteration:   843charge 0 multiplicity 1
 C         2.589590        -1.518054        -0.578186
 C         2.459105        -0.750730         0.659582
 O         3.482912        -0.940809         1.748776
 C         3.408780         0.268841         0.888523
 C         2.806937         1.477335         1.418929
 C         1.469180         1.346238         1.435357
 C         1.079261        -0.068587         0.973607
 C         0.220107         0.013754        -0.335559
 O         0.392576        -0.910538         2.006582
 H         2.019213        -2.493917        -0.561726
 H         2.339541        -0.959779        -1.472978
 H         3.766143        -1.699807        -0.615774
 H         4.309941         0.328567         0.266415
 H         3.271445         2.410607         1.719264
 H         0.767255         2.150685         1.701694
 H        -0.875903        -0.166722         0.000426
 H         0.285327         1.095886        -0.720253
 H         0.519288        -0.586234        -1.230965
 H         0.753561        -0.563506         2.789341
