19
Iteration:  1676
 C         2.600567        -1.610217        -0.521752
 C         2.476666        -0.680573         0.646215
 O         3.472349        -0.802622         1.726261
 C         3.453759         0.382695         0.814067
 C         2.763134         1.570381         1.351591
 C         1.482790         1.231035         1.599592
 C         1.092797        -0.172378         1.060413
 C         0.365769         0.118545        -0.336811
 O         0.241691        -1.034141         1.876498
 H         1.905163        -2.459198        -0.313543
 H         2.363287        -1.318233        -1.572689
 H         3.627883        -1.946863        -0.611671
 H         4.407283         0.330483         0.275506
 H         3.282365         2.512688         1.665757
 H         0.795141         1.921821         2.051582
 H         0.672790         1.065358        -0.826249
 H         0.159730        -0.831479        -0.864098
 H        -0.638188         0.424690         0.040778
 H         0.729801        -1.257325         2.652249
