19
Iteration:  3458charge 0 multiplicity 1
 C         2.757047        -1.702325        -0.549351
 C         2.473657        -0.655802         0.545946
 O         3.485739        -0.708769         1.543717
 C         3.454770         0.496307         0.629554
 C         2.665570         1.561022         1.411685
 C         1.382064         1.244346         1.593964
 C         1.039707        -0.118916         1.061773
 C         0.151560        -0.020307        -0.133386
 O         0.448092        -1.060297         2.066981
 H         1.942151        -1.838791        -1.146792
 H         3.667892        -1.434445        -1.074616
 H         3.004446        -2.729263        -0.187625
 H         4.313249         0.724764         0.038188
 H         3.141549         2.416139         1.904965
 H         0.641886         1.917278         2.057112
 H         0.495104         0.641965        -0.909782
 H         0.072769        -0.988899        -0.634038
 H        -0.849876         0.317504         0.156706
 H         1.094438        -1.239870         2.800578
