19
Iteration:  4058charge 0 multiplicity 1
 C         2.689854        -1.770852        -0.504092
 C         2.558392        -0.709691         0.508076
 O         3.566111        -0.679553         1.525783
 C         3.331552         0.522603         0.733035
 C         2.579222         1.599710         1.424869
 C         1.320517         1.294026         1.594859
 C         1.130894        -0.168835         0.932968
 C         0.069539        -0.114261        -0.141822
 O         0.618492        -0.924163         2.047037
 H         1.861914        -2.463274        -0.155749
 H         2.519449        -1.627969        -1.522592
 H         3.551500        -2.461430        -0.458034
 H         4.086299         0.806727         0.079630
 H         3.096000         2.393515         1.986875
 H         0.570083         1.677462         2.245629
 H         0.072278         0.892328        -0.690392
 H         0.105200        -1.015206        -0.769865
 H        -0.871789        -0.188551         0.449061
 H         1.464452        -1.045111         2.587866
