19
Iteration:   224charge 0 multiplicity 1
 C         2.839308        -1.585447        -0.743452
 C         2.507195        -0.707615         0.525757
 O         3.359795        -0.894427         1.761786
 C         3.505923         0.270152         0.903508
 C         2.847377         1.417760         1.452034
 C         1.545277         1.350764         1.326248
 C         1.019857        -0.069751         0.926276
 C        -0.106055        -0.120188        -0.054910
 O         0.400192        -0.708913         2.015341
 H         2.025211        -2.355636        -0.933126
 H         3.320184        -1.003775        -1.630040
 H         3.649123        -2.183716        -0.347592
 H         4.518854         0.362417         0.488004
 H         3.314233         2.202732         2.032532
 H         0.760014         1.985225         1.713634
 H        -0.141124        -0.973080        -0.784519
 H        -1.053055         0.018399         0.527485
 H        -0.021268         0.782194        -0.774012
 H         1.116530        -0.716087         2.748354
