19
Iteration:  3434
 C         2.458613        -1.702424        -0.503287
 C         2.494139        -0.533227         0.486572
 O         3.544980        -0.762175         1.606968
 C         3.460833         0.518894         0.858036
 C         2.643225         1.667527         1.401452
 C         1.401458         1.232165         1.615222
 C         1.139390        -0.185764         0.996188
 C         0.128550        -0.109844        -0.216120
 O         0.646110        -1.096831         1.943980
 H         1.732409        -1.542031        -1.256998
 H         3.458009        -2.030994        -0.848096
 H         2.118537        -2.563916         0.023891
 H         4.326446         0.854560         0.243751
 H         3.029690         2.737268         1.467900
 H         0.607895         1.877880         2.003393
 H         0.382708         0.594228        -0.957555
 H        -0.123161        -1.016018        -0.790534
 H        -0.800398         0.330217         0.250373
 H         1.069291        -1.016241         2.889000
