19
Iteration:   449
 C         2.895593        -1.756491        -0.549444
 C         2.584816        -0.687171         0.471783
 O         3.260847        -0.858563         1.727240
 C         3.592144         0.350344         0.890470
 C         2.849532         1.506832         1.495462
 C         1.502201         1.331827         1.463844
 C         1.003641        -0.012354         0.897988
 C        -0.193087         0.014730        -0.182278
 O         0.470787        -0.888288         1.902954
 H         2.071556        -2.442449        -0.715706
 H         3.162070        -1.241625        -1.515241
 H         3.758413        -2.277427        -0.258862
 H         4.539602         0.489632         0.377680
 H         3.278738         2.228316         2.127992
 H         0.797355         1.955625         2.025087
 H        -0.870297        -0.715219         0.183162
 H        -0.783263         0.928708        -0.143262
 H         0.163718        -0.064596        -1.202891
 H         0.915745        -0.752686         2.679540
