19
Iteration:  4636
 C         2.803720        -1.806772        -0.512386
 C         2.437982        -0.700174         0.592392
 O         3.568610        -0.674710         1.544116
 C         3.355639         0.489433         0.554186
 C         2.671691         1.615219         1.292430
 C         1.394770         1.281499         1.678841
 C         0.997427        -0.136889         1.112968
 C         0.111283         0.048511        -0.086056
 O         0.468715        -1.072838         2.002319
 H         3.481732        -2.445085         0.045265
 H         1.950329        -2.423272        -0.850630
 H         3.266331        -1.436550        -1.421608
 H         4.135345         0.603206        -0.148792
 H         3.197973         2.510533         1.600785
 H         0.583766         1.857956         2.125180
 H         0.907392         0.203757        -0.838443
 H        -0.435995        -0.877421        -0.205492
 H        -0.633593         0.808152         0.270375
 H         1.237143        -1.195611         2.587909
