19
Iteration:  2568
 C         2.805110        -1.773064        -0.485837
 C         2.533557        -0.758500         0.546302
 O         3.349404        -0.798925         1.696551
 C         3.459214         0.339706         0.849918
 C         2.684340         1.572753         1.402579
 C         1.411133         1.318691         1.594004
 C         1.085087        -0.064672         0.964600
 C         0.147895         0.232836        -0.123074
 O         0.433560        -1.071205         1.791292
 H         2.110872        -1.945327        -1.276072
 H         3.713833        -1.495922        -1.007414
 H         3.087728        -2.773537        -0.072576
 H         4.405591         0.628355         0.410349
 H         3.062398         2.621020         1.472188
 H         0.553775         1.969532         1.881940
 H         0.508958         0.770403        -1.055081
 H        -0.197954        -0.726135        -0.538367
 H        -0.764523         0.621720         0.347087
 H         1.031126        -1.035303         2.548888
