19
Iteration:  1687
 C         2.572272        -1.696879        -0.490435
 C         2.496626        -0.727663         0.657958
 O         3.549353        -0.724848         1.707430
 C         3.472488         0.404962         0.775093
 C         2.756531         1.547345         1.404569
 C         1.503958         1.142473         1.703838
 C         1.065686        -0.113016         0.986891
 C         0.282102         0.119511        -0.291002
 O         0.207174        -0.934287         1.804244
 H         1.984433        -2.631580        -0.326316
 H         2.251869        -1.103542        -1.389880
 H         3.580040        -2.064374        -0.437703
 H         4.344784         0.618838         0.131242
 H         3.372906         2.401407         1.796680
 H         0.760114         1.655248         2.311529
 H         0.856356         0.642965        -1.092925
 H         0.432492        -0.860802        -0.805756
 H        -0.797004         0.311859        -0.254689
 H         0.867484        -1.408215         2.419323
