19
Iteration:   636charge 0 multiplicity 1
 C         2.505108        -1.769462        -0.370450
 C         2.529691        -0.665081         0.632348
 O         3.358541        -0.754321         1.815001
 C         3.499842         0.404892         0.728619
 C         2.827987         1.505375         1.404269
 C         1.498169         1.341631         1.552884
 C         1.135468        -0.082358         0.958506
 C         0.203110         0.183409        -0.213573
 O         0.420410        -1.138408         1.696797
 H         1.943212        -2.630314         0.030447
 H         1.996470        -1.404398        -1.279717
 H         3.516100        -2.037470        -0.737886
 H         4.485056         0.635536         0.313066
 H         3.195371         2.431123         1.729769
 H         0.824307         2.043597         1.960657
 H        -0.295343        -0.769468        -0.459054
 H        -0.582035         0.901238        -0.084809
 H         0.715360         0.546751        -1.088554
 H         0.906642        -1.326671         2.612761
