19
Iteration:  1942charge 0 multiplicity 1
 C         2.852925        -1.656090        -0.571268
 C         2.475812        -0.686747         0.557942
 O         3.303103        -0.899984         1.673074
 C         3.467641         0.327315         0.936675
 C         2.736556         1.495705         1.499923
 C         1.419668         1.296930         1.467187
 C         1.155751        -0.059164         0.876081
 C         0.045518         0.093791        -0.187502
 O         0.464692        -0.859888         1.935609
 H         2.536038        -2.692483        -0.497374
 H         2.343182        -1.353848        -1.495480
 H         3.996871        -1.719596        -0.665280
 H         4.407607         0.269354         0.328441
 H         3.303199         2.310056         1.990265
 H         0.547646         1.827679         1.872630
 H         0.402779         0.756804        -0.978970
 H        -0.205700        -0.852233        -0.674600
 H        -0.921432         0.421039         0.328568
 H         1.014280        -1.414722         2.603826
