19
Iteration:  4344charge 0 multiplicity 1
 C         2.598062        -1.743963        -0.551132
 C         2.496641        -0.649325         0.599075
 O         3.605310        -0.680403         1.492778
 C         3.314730         0.542622         0.655706
 C         2.656596         1.653138         1.405859
 C         1.326732         1.253260         1.566300
 C         1.058722        -0.185762         1.128826
 C         0.212069        -0.163191        -0.136438
 O         0.578565        -1.039382         2.090454
 H         1.771479        -1.518668        -1.245868
 H         3.564903        -1.584356        -1.030889
 H         2.394749        -2.695965        -0.068061
 H         4.082379         0.715636        -0.117575
 H         3.009929         2.685277         1.533485
 H         0.547644         1.944815         1.863115
 H         0.545671         0.486827        -0.964766
 H        -0.015163        -1.180230        -0.537049
 H        -0.685709         0.454749         0.100480
 H         1.446694        -1.141606         2.620756
