19
Iteration:   184charge 0 multiplicity 1
 C         2.813518        -1.726803        -0.573595
 C         2.466794        -0.634804         0.433214
 O         3.137420        -1.056270         1.697772
 C         3.443043         0.416160         0.925114
 C         2.704632         1.527070         1.475261
 C         1.409944         1.358550         1.359033
 C         1.080860        -0.076271         0.927780
 C        -0.038444         0.054829        -0.164330
 O         0.795312        -0.812479         2.029079
 H         2.012516        -2.484040        -0.624837
 H         2.898604        -1.373794        -1.587310
 H         3.755983        -2.138828        -0.188441
 H         4.484188         0.444091         0.789896
 H         3.340081         2.285114         1.959414
 H         0.748115         2.075259         1.906587
 H        -0.269644        -0.922592        -0.611511
 H        -0.898367         0.548020         0.292975
 H         0.354286         0.626446        -1.016859
 H         1.639940        -1.054291         2.358627
