19
Iteration:  3260charge 0 multiplicity 1
 C         2.813104        -1.597538        -0.546347
 C         2.509901        -0.600573         0.471015
 O         3.363530        -0.793600         1.643485
 C         3.414063         0.475794         0.784545
 C         2.659511         1.589405         1.399610
 C         1.380325         1.135352         1.484442
 C         1.091387        -0.187471         0.842907
 C        -0.184916        -0.075099         0.001174
 O         0.803866        -0.916222         2.023228
 H         3.861942        -1.885287        -0.266928
 H         2.109604        -2.472227        -0.462193
 H         2.812881        -1.162995        -1.570599
 H         4.358870         0.491395         0.176830
 H         3.042308         2.467204         1.854890
 H         0.619001         1.555848         2.182030
 H        -0.158185        -0.012349        -1.056760
 H        -0.850874        -0.902976         0.129254
 H        -0.835264         0.772708         0.229940
 H         1.727634        -1.237307         2.362843
