19
Iteration:  2442
 C         2.965650        -1.635134        -0.630198
 C         2.525500        -0.683050         0.557607
 O         3.171428        -0.901382         1.752988
 C         3.488615         0.325804         0.927841
 C         2.753746         1.549837         1.449409
 C         1.460564         1.229928         1.476454
 C         1.078432        -0.148114         0.784807
 C        -0.120740         0.076627        -0.085899
 O         0.571009        -0.847528         1.910041
 H         2.300856        -2.127358        -1.279662
 H         3.698534        -1.083063        -1.241905
 H         3.607193        -2.493194        -0.252545
 H         4.556548         0.281807         0.626587
 H         3.102780         2.360948         2.070633
 H         0.601329         1.947217         1.701744
 H        -0.014654         0.916853        -0.755298
 H        -0.206285        -0.828446        -0.729721
 H        -1.065269         0.208695         0.495101
 H         1.271043        -0.663350         2.494341
