19
Iteration:  3236charge 0 multiplicity 1
 C         2.894261        -1.685599        -0.695847
 C         2.557310        -0.673582         0.439317
 O         3.446117        -0.720089         1.634523
 C         3.429512         0.472491         0.788451
 C         2.684119         1.571358         1.376885
 C         1.359901         1.284869         1.474269
 C         1.033192        -0.150786         1.010652
 C        -0.107646        -0.019785         0.050499
 O         0.576481        -1.078896         2.058442
 H         4.028485        -1.588226        -0.878557
 H         2.653861        -2.659418        -0.338903
 H         2.407185        -1.439834        -1.614921
 H         4.395937         0.641130         0.284876
 H         3.138143         2.505800         1.725420
 H         0.632868         2.036091         1.876946
 H         0.032521        -0.028740        -1.058870
 H        -0.777523        -0.883656         0.126593
 H        -0.794397         0.794422         0.198620
 H         1.276037        -1.052409         2.759411
