19
Iteration:  4941charge 0 multiplicity 1
 C         2.495980        -1.903594        -0.301702
 C         2.479820        -0.626136         0.510718
 O         3.518683        -0.697246         1.434465
 C         3.363455         0.585826         0.821678
 C         2.692020         1.687819         1.421348
 C         1.436476         1.257938         1.609542
 C         1.138233        -0.154147         1.055682
 C         0.180679         0.030696        -0.258868
 O         0.563235        -1.091508         1.945271
 H         3.537425        -1.952358        -0.784799
 H         2.567672        -2.825913         0.459556
 H         1.535784        -2.015866        -0.872293
 H         4.235182         0.898582         0.254335
 H         3.087701         2.682019         1.457972
 H         0.617459         1.976699         1.860431
 H         0.953632         0.402587        -0.982545
 H        -0.280752        -0.864767        -0.708473
 H        -0.758660         0.513629         0.005069
 H         1.318533        -1.598442         2.428074
