19
Iteration:  1333
 C         2.516365        -1.638709        -0.529309
 C         2.544660        -0.571723         0.456925
 O         3.169764        -0.859830         1.768922
 C         3.550406         0.344424         1.020196
 C         2.765244         1.498477         1.572305
 C         1.507388         1.397717         1.430329
 C         1.099140        -0.038473         0.814511
 C         0.034876        -0.084614        -0.278258
 O         0.727978        -1.005396         1.876564
 H         1.645386        -2.264618        -0.216295
 H         2.084810        -1.241383        -1.508956
 H         3.415256        -2.108272        -0.693399
 H         4.665490         0.474625         0.769241
 H         3.232824         2.283958         2.205096
 H         0.875627         1.868098         2.177673
 H         0.283110         0.698427        -1.029315
 H         0.129042        -1.048972        -0.867507
 H        -0.880179         0.234863         0.063191
 H         1.528517        -0.808645         2.428432
