19
Iteration:  2126charge 0 multiplicity 1
 C         2.549011        -1.507741        -0.707888
 C         2.490858        -0.602477         0.461027
 O         3.208562        -0.941577         1.759299
 C         3.570628         0.278803         1.111581
 C         2.764263         1.557802         1.569959
 C         1.387503         1.372772         1.380435
 C         1.133996        -0.038694         0.843145
 C         0.148929        -0.200740        -0.297410
 O         0.632804        -0.845072         2.038007
 H         2.187695        -2.508359        -0.399420
 H         1.987445        -1.260373        -1.638676
 H         3.690148        -1.677073        -0.949964
 H         4.629497         0.430082         0.794038
 H         3.349279         2.358599         1.990045
 H         0.597375         2.063673         1.717091
 H         0.325622         0.596963        -1.073552
 H         0.225041        -1.217770        -0.730833
 H        -0.860467        -0.246347         0.284907
 H         1.420115        -1.134072         2.424261
