19
Iteration:  4491charge 0 multiplicity 1
 C         2.714945        -1.534540        -0.633211
 C         2.437679        -0.621354         0.543614
 O         3.531792        -0.820492         1.521236
 C         3.486303         0.511510         0.733277
 C         2.710753         1.607538         1.347093
 C         1.404393         1.267812         1.414756
 C         1.065953        -0.187653         1.063319
 C        -0.098473        -0.317729        -0.027776
 O         0.577270        -0.879637         2.184645
 H         2.238630        -1.142784        -1.514761
 H         3.761710        -1.429735        -0.764425
 H         2.397356        -2.529707        -0.371730
 H         4.445840         0.657710         0.135921
 H         3.223480         2.435399         1.785028
 H         0.636165         1.905876         1.787816
 H         0.455294        -0.110992        -0.983884
 H        -0.345527        -1.415622        -0.205532
 H        -1.011638         0.259841         0.268093
 H         1.357647        -0.999604         2.776648
