19
Iteration:   213charge 0 multiplicity 1
 C         2.902703        -1.697276        -0.699731
 C         2.511509        -0.688930         0.386290
 O         3.308116        -0.875503         1.742455
 C         3.557015         0.254738         0.979809
 C         2.774279         1.451762         1.474572
 C         1.438130         1.260313         1.338828
 C         1.094142        -0.124536         0.855109
 C        -0.146124         0.002330        -0.083403
 O         0.488994        -0.645376         2.088058
 H         2.074624        -2.335594        -1.144610
 H         3.193217        -1.074846        -1.647690
 H         3.741952        -2.313375        -0.431138
 H         4.574676         0.357891         0.555795
 H         3.260272         2.243500         2.019263
 H         0.744306         1.862571         1.889489
 H        -0.323713        -0.956127        -0.629982
 H        -1.045800         0.049612         0.587378
 H        -0.123808         0.944726        -0.729710
 H         1.128176        -0.809488         2.725333
