19
Iteration:  3592
 C         2.765381        -1.709679        -0.556477
 C         2.555227        -0.667773         0.448441
 O         3.448886        -0.764398         1.552697
 C         3.376917         0.453561         0.774757
 C         2.698700         1.577190         1.467423
 C         1.381266         1.347528         1.529529
 C         1.063921        -0.147847         1.002787
 C        -0.037702        -0.097381        -0.016653
 O         0.609716        -1.002554         1.993834
 H         3.256045        -1.175224        -1.513005
 H         3.389199        -2.541040        -0.294627
 H         1.818386        -2.147239        -0.946115
 H         4.322440         0.706090         0.207442
 H         3.136979         2.521002         1.874922
 H         0.577245         1.938803         1.949572
 H         0.159027         0.736129        -0.759252
 H        -0.081499        -1.101846        -0.466414
 H        -0.983403         0.249676         0.371597
 H         1.386517        -0.852927         2.531189
