19
Iteration:  1697charge 0 multiplicity 1
 C         2.605024        -1.812661        -0.403681
 C         2.520649        -0.700746         0.616870
 O         3.564938        -0.678421         1.655672
 C         3.465102         0.418303         0.746360
 C         2.748933         1.482552         1.508567
 C         1.484932         1.159803         1.777192
 C         1.096349        -0.055161         0.976066
 C         0.261537         0.036476        -0.330596
 O         0.217005        -0.858248         1.745244
 H         1.836227        -2.603797        -0.389054
 H         2.392435        -1.310110        -1.382449
 H         3.601753        -2.114998        -0.771195
 H         4.235952         0.567699        -0.036140
 H         3.120969         2.458268         1.909491
 H         0.825241         1.533391         2.537177
 H         0.800266         0.826149        -0.937696
 H         0.040130        -0.986628        -0.715810
 H        -0.729215         0.545647        -0.164830
 H         0.734666        -1.532199         2.345764
