19
Iteration:  3639charge 0 multiplicity 1
 C         2.782738        -1.579280        -0.727540
 C         2.550293        -0.685252         0.537158
 O         3.399361        -0.681234         1.586075
 C         3.478254         0.471714         0.774582
 C         2.688410         1.574620         1.333669
 C         1.414781         1.212278         1.510130
 C         1.104632        -0.189171         1.054818
 C        -0.013733        -0.181385        -0.002961
 O         0.501451        -0.954153         2.111271
 H         3.838417        -1.908689        -0.873375
 H         2.240180        -2.562479        -0.889388
 H         2.546434        -1.131450        -1.681518
 H         4.422242         0.567365         0.317599
 H         3.157703         2.479693         1.625947
 H         0.611131         1.803971         1.974333
 H         0.294889         0.355728        -0.851936
 H        -0.471949        -1.158298        -0.224782
 H        -0.749657         0.586153         0.380448
 H         1.193136        -1.213106         2.809199
