19
Iteration:  3739
 C         2.890701        -1.607481        -0.546050
 C         2.440449        -0.566170         0.442502
 O         3.451057        -0.680575         1.565322
 C         3.429552         0.467028         0.689034
 C         2.742242         1.553681         1.288128
 C         1.460260         1.219765         1.551068
 C         1.009861        -0.194938         1.077300
 C        -0.132947        -0.063387        -0.008496
 O         0.553874        -1.100705         2.062565
 H         2.472042        -2.560765        -0.263616
 H         2.450915        -1.501242        -1.571341
 H         3.955104        -1.793950        -0.423313
 H         4.343498         0.678913         0.082138
 H         3.203314         2.527234         1.636474
 H         0.840730         2.010929         1.972040
 H         0.218322         0.568877        -0.808619
 H        -0.283527        -1.083295        -0.330415
 H        -1.071157         0.242530         0.446343
 H         1.269788        -1.158701         2.786951
