19
Iteration:  2767
 C         2.730765        -1.636776        -0.577185
 C         2.520666        -0.568396         0.458102
 O         3.239554        -0.861781         1.624058
 C         3.464032         0.444338         0.885508
 C         2.729033         1.491157         1.622194
 C         1.406080         1.307417         1.484946
 C         1.103464        -0.118851         0.862201
 C         0.072094        -0.197935        -0.231170
 O         0.616787        -0.796203         2.010203
 H         3.073870        -2.487095        -0.063077
 H         1.831960        -2.000500        -1.087968
 H         3.454582        -1.549609        -1.381425
 H         4.476038         0.516598         0.390192
 H         3.338738         2.186060         2.233666
 H         0.737591         1.836000         2.134045
 H        -0.042700         0.757820        -0.711141
 H         0.189268        -1.009433        -0.962264
 H        -0.960440        -0.399796         0.176948
 H         1.442142        -0.833467         2.564108
