19
Iteration:  2638
 C         2.589846        -1.799950        -0.477016
 C         2.476642        -0.537734         0.464579
 O         3.503859        -0.812492         1.575265
 C         3.489375         0.440440         0.947431
 C         2.674622         1.539783         1.615963
 C         1.352329         1.281536         1.504894
 C         1.105003        -0.036679         0.911412
 C         0.160757         0.028208        -0.289714
 O         0.507167        -1.028948         1.940679
 H         3.039630        -1.739692        -1.530952
 H         3.254885        -2.510884         0.090152
 H         1.644275        -2.368919        -0.609046
 H         4.481297         0.712173         0.439055
 H         3.173794         2.382402         2.100706
 H         0.603680         1.977965         1.806850
 H         0.550689         0.669899        -1.057817
 H         0.156614        -0.905867        -0.864100
 H        -0.858424         0.354674        -0.005637
 H         1.155082        -0.962593         2.741040
