19
Iteration:  1225charge 0 multiplicity 1
 C         2.676443        -1.686407        -0.509464
 C         2.505876        -0.625950         0.537751
 O         3.445467        -0.848358         1.600319
 C         3.517717         0.445760         0.923236
 C         2.756737         1.546090         1.536954
 C         1.480517         1.238005         1.578715
 C         1.115836        -0.098299         0.938177
 C         0.092572         0.063830        -0.290558
 O         0.364466        -0.966487         1.918613
 H         1.987516        -2.525196        -0.197682
 H         2.294378        -1.320079        -1.543388
 H         3.661008        -2.033193        -0.638444
 H         4.510681         0.604319         0.430108
 H         3.151518         2.540424         1.741274
 H         0.624225         1.685545         2.110628
 H         0.526572        -0.181612        -1.275608
 H        -0.604875        -0.822033        -0.287658
 H        -0.360338         1.049203        -0.239590
 H         1.062307        -1.422187         2.519154
