19
Iteration:  4298charge 0 multiplicity 1
 C         2.725707        -1.691591        -0.557820
 C         2.561996        -0.633612         0.485618
 O         3.465189        -0.724292         1.609582
 C         3.422617         0.549001         0.713281
 C         2.680585         1.640271         1.408525
 C         1.373337         1.196299         1.588855
 C         1.110247        -0.135013         0.925046
 C        -0.127296        -0.214086        -0.058069
 O         0.681027        -0.945113         2.032284
 H         1.723922        -1.888427        -1.028679
 H         3.527944        -1.401231        -1.334644
 H         2.919590        -2.655302         0.031888
 H         4.369513         0.687549         0.060804
 H         3.096520         2.625769         1.659500
 H         0.598638         1.709047         2.171067
 H         0.020148         0.100996        -1.078784
 H        -0.225029        -1.302113        -0.234182
 H        -1.062127         0.333787         0.101715
 H         1.294556        -0.896797         2.813673
