19
Iteration:  2274
 C         2.601410        -1.784385        -0.370729
 C         2.470887        -0.631788         0.530806
 O         3.431553        -0.781400         1.701299
 C         3.494027         0.408277         0.864794
 C         2.707443         1.531633         1.443583
 C         1.377976         1.228032         1.591876
 C         1.129844        -0.103670         0.944099
 C         0.203251         0.235299        -0.258648
 O         0.492458        -1.064674         1.757426
 H         2.115143        -2.724468         0.038698
 H         2.008648        -1.655161        -1.310540
 H         3.557137        -2.043004        -0.713197
 H         4.564994         0.552815         0.491262
 H         3.070982         2.542804         1.521701
 H         0.617591         1.969707         1.917717
 H         0.460786         1.161105        -0.875257
 H         0.216883        -0.734477        -0.767630
 H        -0.694043         0.243685         0.343311
 H         1.040881        -1.246525         2.559383
