19
Iteration:  1537
 C         2.703013        -1.494792        -0.759369
 C         2.464479        -0.773253         0.643523
 O         3.268779        -0.921463         1.855613
 C         3.528602         0.251228         1.033443
 C         2.823006         1.497175         1.328667
 C         1.463689         1.306907         1.453441
 C         1.090520        -0.123393         0.925704
 C         0.156769         0.002687        -0.231052
 O         0.422907        -0.809735         1.994270
 H         2.099885        -2.363521        -1.062517
 H         2.469493        -0.615283        -1.450593
 H         3.717215        -1.612851        -0.680210
 H         4.426116         0.226660         0.363009
 H         3.353026         2.394820         1.628027
 H         0.762664         2.049388         1.754570
 H         0.530344         0.705442        -0.993813
 H        -0.015659        -1.004988        -0.665394
 H        -0.834030         0.347496        -0.027395
 H         1.215450        -1.300258         2.318381
