19
Iteration:  3490charge 0 multiplicity 1
 C         2.957551        -1.716949        -0.578355
 C         2.501998        -0.753178         0.537182
 O         3.497989        -0.684137         1.538584
 C         3.452058         0.482874         0.728611
 C         2.647003         1.625578         1.296604
 C         1.484030         1.093380         1.691570
 C         1.091225        -0.179167         1.007783
 C        -0.056972         0.034163        -0.106344
 O         0.342359        -0.889762         2.050052
 H         2.200891        -2.002974        -1.183870
 H         3.677736        -1.241795        -1.270460
 H         3.362517        -2.682705        -0.313939
 H         4.361201         0.572129         0.185573
 H         2.945861         2.524982         1.835565
 H         0.717593         1.382680         2.428855
 H         0.249360         0.386684        -1.058521
 H        -0.509748        -0.951038        -0.307366
 H        -0.865834         0.634172         0.326094
 H         1.050512        -1.340496         2.511991
