19
Iteration:  2261charge 0 multiplicity 1
 C         2.494526        -1.718190        -0.414113
 C         2.522148        -0.612563         0.591068
 O         3.424518        -0.854221         1.670258
 C         3.523358         0.410321         0.935562
 C         2.702971         1.631781         1.413893
 C         1.420328         1.293818         1.595867
 C         1.105977        -0.070331         0.983579
 C         0.206617         0.101593        -0.319514
 O         0.507847        -1.130354         1.818789
 H         1.927430        -2.547067         0.098511
 H         2.164847        -1.379012        -1.426580
 H         3.535086        -2.032359        -0.410853
 H         4.392910         0.543166         0.224578
 H         3.211511         2.538255         1.700797
 H         0.578846         1.963312         1.919650
 H         0.644509         0.938440        -0.923564
 H         0.022366        -0.757616        -1.020551
 H        -0.818818         0.601350        -0.251948
 H         1.273949        -1.427018         2.330752
