19
Iteration:   632
 C         2.512538        -1.747403        -0.362972
 C         2.509904        -0.642941         0.644186
 O         3.351969        -0.771769         1.826834
 C         3.486016         0.377800         0.760316
 C         2.826091         1.535822         1.348312
 C         1.503198         1.323715         1.565200
 C         1.128588        -0.081268         0.954456
 C         0.216892         0.178491        -0.210825
 O         0.447125        -1.157482         1.689814
 H         1.918554        -2.647949        -0.055177
 H         1.956010        -1.232801        -1.240372
 H         3.504882        -1.992102        -0.713589
 H         4.445194         0.491461         0.298255
 H         3.199381         2.550335         1.644781
 H         0.893807         2.137591         2.021508
 H        -0.344703        -0.781293        -0.372884
 H        -0.565350         0.998004        -0.021200
 H         0.722441         0.460539        -1.204964
 H         0.847617        -1.321691         2.490995
