19
Iteration:   376
 C         2.465553        -1.769066        -0.419951
 C         2.446093        -0.661521         0.630962
 O         3.452488        -0.804813         1.695105
 C         3.475732         0.359677         0.793675
 C         2.677432         1.535283         1.275443
 C         1.444487         1.203506         1.606892
 C         1.095872        -0.115065         1.058370
 C         0.395356         0.255606        -0.318348
 O         0.451857        -1.014693         1.928360
 H         1.673201        -2.519509        -0.262011
 H         2.247164        -1.267374        -1.381041
 H         3.409892        -2.249374        -0.472505
 H         4.327064         0.350502         0.177069
 H         3.041033         2.533116         1.289051
 H         0.610962         1.806373         1.926637
 H         0.450334        -0.600809        -0.987534
 H        -0.641217         0.507834        -0.208964
 H         0.958404         1.120198        -0.703810
 H         1.007414        -1.142752         2.628470
