19
Iteration:  2882charge 0 multiplicity 1
 C         2.623597        -1.737228        -0.469204
 C         2.490131        -0.581172         0.451782
 O         3.504987        -0.645110         1.605979
 C         3.406805         0.512644         0.795296
 C         2.691861         1.555411         1.476368
 C         1.377139         1.175205         1.620953
 C         1.114943        -0.168722         0.980573
 C         0.120471        -0.000645        -0.165930
 O         0.544378        -1.069658         1.889807
 H         1.644773        -1.977824        -0.877074
 H         3.479328        -1.641947        -1.186441
 H         2.774556        -2.597550         0.282513
 H         4.416138         0.677166         0.395893
 H         3.238617         2.435804         1.835195
 H         0.488305         1.670659         1.937690
 H         0.652624         0.208924        -1.120661
 H        -0.642147        -0.767994        -0.296603
 H        -0.504672         0.926114        -0.156867
 H         1.326968        -1.426993         2.470136
