19
Iteration:  4706
 C         2.472884        -1.742055        -0.333655
 C         2.489754        -0.552241         0.539789
 O         3.534712        -0.727473         1.578026
 C         3.449828         0.511053         0.750922
 C         2.711299         1.638349         1.386837
 C         1.438322         1.301124         1.541167
 C         1.097410        -0.098284         0.950417
 C         0.084745        -0.085646        -0.151487
 O         0.615324        -1.138145         1.928693
 H         3.556905        -1.937524        -0.694873
 H         2.172533        -2.717334         0.151274
 H         1.858720        -1.755635        -1.297542
 H         4.274215         0.631258         0.024770
 H         3.008664         2.619242         1.716984
 H         0.631302         1.961090         1.897395
 H         0.466820         0.597783        -0.946564
 H        -0.124985        -1.061450        -0.677150
 H        -0.876786         0.158463         0.318133
 H         1.270798        -1.178534         2.687507
