19
Iteration:  4918charge 0 multiplicity 1
 C         2.540850        -1.785636        -0.445962
 C         2.524755        -0.618579         0.557605
 O         3.402232        -0.613912         1.729874
 C         3.477322         0.451257         0.632730
 C         2.640694         1.604691         1.250908
 C         1.392201         1.217418         1.594804
 C         1.172899        -0.106243         1.023825
 C         0.155363         0.064898        -0.114625
 O         0.606214        -1.136519         1.887748
 H         3.620644        -1.907431        -0.705472
 H         2.282229        -2.747243         0.204206
 H         1.719484        -1.786604        -1.211269
 H         4.417828         0.520918         0.039425
 H         3.108833         2.520825         1.459905
 H         0.847930         1.692450         2.404781
 H         0.595354         0.583187        -1.001532
 H        -0.227310        -0.874693        -0.518644
 H        -0.824066         0.373775         0.232687
 H         1.040088        -1.164397         2.716380
