19
Iteration:  1888charge 0 multiplicity 1
 C         2.639354        -1.365279        -0.701882
 C         2.467777        -0.575740         0.570675
 O         3.184555        -1.022595         1.814144
 C         3.501434         0.279170         1.042552
 C         2.819302         1.473632         1.505427
 C         1.497200         1.401449         1.304022
 C         1.056685        -0.084548         0.916055
 C         0.117330        -0.243208        -0.194768
 O         0.587829        -0.857121         1.955777
 H         1.848091        -2.063007        -1.057739
 H         2.878040        -0.562613        -1.445292
 H         3.686377        -1.887203        -0.597984
 H         4.570620         0.256026         0.687531
 H         3.428760         2.388244         1.711008
 H         0.829756         2.248596         1.485371
 H         0.544122        -0.148309        -1.197697
 H        -0.410701        -1.186915        -0.110726
 H        -0.736702         0.552921        -0.194285
 H         1.366130        -1.021979         2.604437
