19
Iteration:  2755charge 0 multiplicity 1
 C         2.736107        -1.673263        -0.721182
 C         2.520289        -0.622280         0.434140
 O         3.245269        -0.851352         1.774234
 C         3.522335         0.435733         0.916809
 C         2.764032         1.563828         1.627256
 C         1.445402         1.261874         1.404702
 C         1.085721        -0.050450         0.841061
 C        -0.012621        -0.165588        -0.273829
 O         0.610718        -0.870204         2.112230
 H         3.178253        -2.447864        -0.233361
 H         1.700411        -1.950405        -0.964758
 H         3.314674        -1.247206        -1.586000
 H         4.592942         0.579159         0.517209
 H         3.085766         2.520166         2.089659
 H         0.545513         1.717222         1.759746
 H         0.031447         0.750193        -0.856265
 H         0.084241        -0.935454        -1.042777
 H        -0.954680        -0.181610         0.351542
 H         1.549511        -1.122887         2.539290
