19
Iteration:  3918
 C         2.636759        -1.647156        -0.640060
 C         2.544565        -0.602681         0.496175
 O         3.372422        -0.691925         1.642233
 C         3.528506         0.497579         0.812141
 C         2.694914         1.617654         1.378432
 C         1.442014         1.215823         1.425586
 C         1.131768        -0.131241         0.984577
 C         0.040138        -0.262345        -0.141256
 O         0.526248        -0.947239         2.132044
 H         3.139068        -2.648290        -0.287393
 H         1.665562        -1.701273        -1.079878
 H         3.144024        -1.169074        -1.505444
 H         4.474764         0.673896         0.358115
 H         3.251315         2.368519         1.986997
 H         0.609057         1.717887         1.968645
 H         0.254385         0.505145        -0.860379
 H         0.125178        -1.345813        -0.466289
 H        -0.953143        -0.153759         0.436245
 H         1.247953        -1.132339         2.772076
