19
Iteration:  2914charge 0 multiplicity 1
 C         2.734343        -1.769594        -0.463918
 C         2.563036        -0.645119         0.479296
 O         3.573205        -0.727177         1.531486
 C         3.427090         0.556753         0.760979
 C         2.684639         1.565332         1.606220
 C         1.383504         1.257477         1.578765
 C         1.094442        -0.132666         0.919217
 C        -0.031422        -0.079402        -0.202727
 O         0.484991        -0.966448         1.930216
 H         2.168146        -1.620609        -1.387450
 H         3.705247        -2.209970        -0.757532
 H         2.213221        -2.572779         0.150362
 H         4.382175         0.855639         0.296255
 H         3.337492         2.241323         2.165344
 H         0.575150         1.509215         2.252741
 H         0.206087         0.667800        -1.016882
 H        -0.276497        -1.034415        -0.727016
 H        -0.980660         0.222423         0.309589
 H         1.038294        -0.855548         2.682484
