19
Iteration:  2719
 C         2.756514        -1.450382        -0.596068
 C         2.519701        -0.592370         0.593226
 O         3.255883        -1.017193         1.798027
 C         3.484758         0.342938         0.919790
 C         2.710582         1.611169         1.355482
 C         1.410265         1.315496         1.337576
 C         1.157714        -0.105669         0.910397
 C         0.053200        -0.050761        -0.109498
 O         0.567242        -1.019118         1.966727
 H         3.864268        -1.766250        -0.655491
 H         2.179589        -2.368556        -0.777876
 H         2.651928        -0.872917        -1.564302
 H         4.471821         0.280757         0.545511
 H         3.046339         2.628807         1.478941
 H         0.576703         2.037663         1.564494
 H         0.318996         0.536916        -1.053034
 H        -0.242904        -1.109779        -0.254379
 H        -0.835317         0.461138         0.299753
 H         1.243273        -0.970148         2.754550
