19
Iteration:  3072
 C         2.653760        -1.692336        -0.650171
 C         2.547683        -0.666197         0.522433
 O         3.427875        -0.864828         1.622711
 C         3.494416         0.432374         0.853958
 C         2.640592         1.628590         1.455965
 C         1.295818         1.331451         1.539242
 C         1.085301        -0.109423         1.033012
 C         0.121040        -0.142173        -0.206469
 O         0.594557        -0.924495         2.059992
 H         1.983731        -1.361906        -1.546836
 H         3.600677        -1.490654        -1.117030
 H         2.470996        -2.749595        -0.477882
 H         4.445421         0.560053         0.367052
 H         3.061974         2.638561         1.597721
 H         0.568588         2.124514         1.681308
 H         0.570671         0.639844        -0.808846
 H         0.073860        -1.120858        -0.627450
 H        -0.867086         0.084504         0.066752
 H         1.230396        -0.953926         2.872510
