19
Iteration:     1
 C         2.649125        -1.684896        -0.548841
 C         2.498919        -0.644267         0.523814
 O         3.311507        -0.832320         1.698824
 C         3.495969         0.368498         0.891576
 C         2.764986         1.548948         1.445620
 C         1.457027         1.293335         1.481059
 C         1.106615        -0.089935         0.934850
 C         0.093100        -0.028577        -0.202052
 O         0.535102        -0.910328         1.949159
 H         2.059128        -2.573485        -0.299275
 H         2.307000        -1.312639        -1.518973
 H         3.696296        -1.983990        -0.637760
 H         4.471007         0.450273         0.420704
 H         3.258381         2.444184         1.804048
 H         0.688789         1.931525         1.903770
 H        -0.137615        -1.034201        -0.564061
 H        -0.835961         0.421659         0.158897
 H         0.469174         0.574211        -1.033502
 H         1.247394        -1.059315         2.586081
