19
Iteration:  3647
 C         2.708192        -1.597318        -0.752507
 C         2.491272        -0.692522         0.519685
 O         3.421862        -0.729926         1.638145
 C         3.449863         0.439420         0.721675
 C         2.658539         1.601487         1.361814
 C         1.381200         1.260367         1.530436
 C         1.119163        -0.128228         1.085906
 C         0.067638        -0.177309        -0.055647
 O         0.574923        -0.962410         2.093019
 H         3.811607        -1.984167        -0.537286
 H         1.940898        -2.343919        -0.666789
 H         2.773971        -0.872506        -1.595634
 H         4.453868         0.504968         0.247553
 H         2.954223         2.617860         1.637550
 H         0.550881         1.712037         2.048502
 H         0.349703         0.191276        -1.091719
 H        -0.343286        -1.211456        -0.108540
 H        -0.795501         0.369192         0.384644
 H         1.405985        -1.242006         2.547599
