19
Iteration:  1753
 C         2.546053        -1.821218        -0.377915
 C         2.535713        -0.678953         0.557291
 O         3.445176        -0.799820         1.711137
 C         3.397079         0.436859         0.819299
 C         2.682995         1.561613         1.448865
 C         1.418359         1.210590         1.685001
 C         1.183379        -0.076995         0.912343
 C         0.237267         0.310488        -0.332496
 O         0.473480        -1.129409         1.777140
 H         2.253856        -2.784209         0.154268
 H         1.868476        -1.702187        -1.322980
 H         3.577533        -1.963480        -0.597224
 H         4.321888         0.608547         0.299079
 H         3.372150         2.360469         1.744734
 H         0.595608         1.837989         2.104348
 H         0.934581         0.630653        -1.154809
 H        -0.385878        -0.584080        -0.686088
 H        -0.428951         1.123249        -0.070584
 H         0.744002        -0.843360         2.663520
