19
Iteration:  4997charge 0 multiplicity 1
 C         2.729180        -1.778422        -0.461951
 C         2.462794        -0.690089         0.538107
 O         3.499074        -0.652707         1.572957
 C         3.456425         0.482376         0.628267
 C         2.758772         1.666311         1.389778
 C         1.542759         1.169995         1.652096
 C         1.110697        -0.129525         1.023730
 C         0.127734        -0.108514        -0.153075
 O         0.317779        -0.993184         2.011761
 H         3.720685        -1.551098        -0.993437
 H         2.464889        -2.774976         0.006527
 H         1.981185        -1.737309        -1.304841
 H         4.228803         0.496394        -0.110860
 H         3.101168         2.707259         1.536043
 H         0.805228         1.824451         2.149870
 H         0.310991         0.470819        -1.036336
 H        -0.180027        -1.134035        -0.404524
 H        -0.706043         0.505603         0.003817
 H         0.507875        -0.685747         2.894374
