19
Iteration:    16charge 0 multiplicity 1
 C         2.492412        -1.662754        -0.397313
 C         2.466461        -0.600827         0.581029
 O         3.457422        -0.883906         1.694438
 C         3.517057         0.419868         0.938466
 C         2.814143         1.600993         1.455076
 C         1.488015         1.403173         1.437584
 C         1.118916        -0.033743         0.935422
 C         0.079682         0.020225        -0.182047
 O         0.497114        -1.156705         1.796882
 H         1.996305        -2.550863        -0.005262
 H         2.151325        -1.363026        -1.376154
 H         3.558940        -1.971581        -0.615900
 H         4.465831         0.493674         0.392399
 H         3.299284         2.586615         1.462421
 H         0.709024         2.176777         1.340065
 H        -0.257160        -1.023142        -0.430007
 H        -0.865506         0.387361         0.267070
 H         0.375769         0.485443        -1.126757
 H         1.137807        -1.207133         2.512824
