19
Iteration:  1626charge 0 multiplicity 1
 C         2.744595        -1.649951        -0.550441
 C         2.553037        -0.616444         0.458408
 O         3.155751        -0.877231         1.782753
 C         3.564177         0.316044         1.013867
 C         2.814363         1.518364         1.561882
 C         1.463799         1.292049         1.435175
 C         1.053322        -0.100761         0.770513
 C        -0.065367         0.043415        -0.223176
 O         0.614683        -0.874552         1.900328
 H         2.087796        -2.534476        -0.374003
 H         2.559588        -1.245094        -1.585184
 H         3.746967        -2.003930        -0.668859
 H         4.578042         0.231816         0.607946
 H         3.474837         2.275019         2.056884
 H         0.655785         1.819206         2.089571
 H         0.373807         0.482746        -1.117108
 H        -0.496295        -0.975355        -0.385723
 H        -0.844647         0.696157         0.103963
 H         1.555851        -1.214890         2.247851
