19
Iteration:   621
 C         2.521798        -1.661486        -0.399580
 C         2.443645        -0.672904         0.664623
 O         3.328314        -0.790658         1.809166
 C         3.527061         0.323403         0.925513
 C         2.772304         1.670061         1.215794
 C         1.548963         1.259559         1.604875
 C         1.113168        -0.072752         1.003617
 C         0.197962         0.157402        -0.242236
 O         0.485639        -1.155411         1.676747
 H         1.943829        -2.599155        -0.160321
 H         2.048176        -1.248331        -1.388714
 H         3.545066        -1.959768        -0.607260
 H         4.334922         0.076228         0.268347
 H         3.449291         2.571961         1.234206
 H         0.743082         1.880892         2.105936
 H        -0.550577        -0.675938        -0.314030
 H        -0.354436         1.124466         0.062896
 H         0.791942         0.301382        -1.218213
 H         1.085703        -1.246544         2.471398
