19
Iteration:  1639
 C         2.725166        -1.673282        -0.625493
 C         2.508471        -0.632744         0.483876
 O         3.209124        -0.909328         1.814935
 C         3.478894         0.300656         1.016323
 C         2.757969         1.537122         1.406843
 C         1.462528         1.283401         1.491184
 C         1.145427        -0.051115         0.891801
 C         0.045076         0.124599        -0.259426
 O         0.600019        -0.976234         1.919527
 H         2.107305        -2.535497        -0.424841
 H         2.469493        -1.259020        -1.560625
 H         3.799009        -2.071189        -0.555438
 H         4.507707         0.424420         0.676269
 H         3.083613         2.472166         1.808478
 H         0.665015         1.981345         1.858962
 H         0.409273         0.626953        -1.142632
 H        -0.434516        -0.718845        -0.693656
 H        -0.711150         0.697988         0.325417
 H         1.233926        -0.987421         2.596127
