19
Iteration:  1040
 C         2.693922        -1.623458        -0.526660
 C         2.614851        -0.574662         0.472409
 O         3.177928        -0.942512         1.703179
 C         3.533872         0.395069         0.962826
 C         2.785835         1.561279         1.618266
 C         1.493560         1.268096         1.440465
 C         1.089934        -0.081727         0.796473
 C        -0.114914         0.030766        -0.227003
 O         0.665992        -0.979780         1.909789
 H         1.888643        -2.384713        -0.272228
 H         2.667023        -1.259207        -1.601305
 H         3.656528        -2.145338        -0.324193
 H         4.565278         0.462435         0.710606
 H         3.225661         2.577199         1.807480
 H         0.631399         1.794644         1.910952
 H         0.133466        -0.145566        -1.352978
 H        -0.831016        -0.867022        -0.061843
 H        -0.424845         1.125188        -0.052121
 H         1.380944        -0.977149         2.483256
