19
Iteration:  4384
 C         2.739291        -1.780983        -0.504624
 C         2.525068        -0.617976         0.476230
 O         3.426180        -0.509206         1.610499
 C         3.433092         0.554815         0.606801
 C         2.701629         1.616135         1.249997
 C         1.482740         1.153059         1.648877
 C         1.102696        -0.253059         0.973229
 C        -0.048037        -0.050499         0.052629
 O         0.544654        -1.127970         2.001152
 H         2.656960        -1.401376        -1.555438
 H         3.700562        -2.342268        -0.286263
 H         2.060188        -2.697509        -0.450531
 H         4.378747         0.835771         0.007924
 H         2.923888         2.680074         1.420817
 H         0.790199         1.922534         2.025399
 H         0.412002         0.540530        -0.713782
 H        -0.472574        -1.044839        -0.148552
 H        -0.816296         0.495861         0.652864
 H         1.158358        -1.117302         2.716905
