19
Iteration:  1002charge 0 multiplicity 1
 C         2.875106        -1.674795        -0.639508
 C         2.512427        -0.729181         0.492715
 O         3.371583        -0.823617         1.745409
 C         3.453078         0.366346         0.820683
 C         2.779817         1.538225         1.505069
 C         1.460706         1.298256         1.540083
 C         1.054393        -0.157444         0.991079
 C         0.036664         0.147151        -0.193891
 O         0.355247        -0.972788         1.936348
 H         2.295545        -2.572216        -0.699792
 H         2.800908        -1.200911        -1.619282
 H         3.915188        -1.957122        -0.406474
 H         4.424887         0.429563         0.248669
 H         3.294121         2.419824         1.783385
 H         0.719845         1.944924         2.036315
 H         0.464653        -0.106959        -1.124040
 H        -0.822013        -0.466913        -0.080873
 H        -0.296221         1.151988        -0.292353
 H         1.059506        -1.233958         2.554967
