19
Iteration:  1334charge 0 multiplicity 1
 C         2.526512        -1.646794        -0.520566
 C         2.532924        -0.573409         0.450869
 O         3.169334        -0.861709         1.757327
 C         3.556306         0.351844         1.018808
 C         2.767902         1.488422         1.572643
 C         1.499077         1.390380         1.438454
 C         1.097153        -0.023168         0.809930
 C         0.035629        -0.080781        -0.276087
 O         0.726602        -1.006685         1.879022
 H         1.631246        -2.251822        -0.217095
 H         2.096071        -1.244311        -1.494461
 H         3.474417        -2.117532        -0.674774
 H         4.650198         0.476199         0.782711
 H         3.207263         2.296513         2.186533
 H         0.886617         1.864738         2.159541
 H         0.263255         0.668314        -1.062545
 H         0.157913        -1.032464        -0.867275
 H        -0.871256         0.287188         0.082637
 H         1.543529        -0.801240         2.490326
