19
Iteration:  2136
 C         2.616475        -1.480284        -0.744204
 C         2.516613        -0.571743         0.498770
 O         3.100658        -0.966351         1.776469
 C         3.559104         0.382288         1.133412
 C         2.786022         1.485896         1.488584
 C         1.493100         1.279515         1.364520
 C         1.130066        -0.057129         0.862443
 C         0.053957        -0.211062        -0.260124
 O         0.671729        -0.829489         2.051815
 H         2.154371        -2.457949        -0.464507
 H         2.069679        -1.129225        -1.666916
 H         3.736725        -1.652332        -0.970648
 H         4.663695         0.365888         1.015686
 H         3.177797         2.426863         1.789102
 H         0.711002         1.915905         1.797040
 H         0.138895         0.613716        -1.033317
 H         0.297581        -1.105252        -0.840439
 H        -1.063357        -0.171972        -0.065910
 H         1.447727        -0.870215         2.574000
