19
Iteration:  4555charge 0 multiplicity 1
 C         2.676530        -1.618981        -0.556264
 C         2.467991        -0.531784         0.474823
 O         3.295867        -0.805996         1.638651
 C         3.423808         0.452347         0.761321
 C         2.719613         1.575368         1.363687
 C         1.415495         1.346305         1.398019
 C         1.051470        -0.114591         0.979201
 C        -0.056351        -0.222014        -0.027268
 O         0.826766        -0.983934         2.118637
 H         1.952388        -2.462556        -0.557573
 H         2.614286        -1.273302        -1.599053
 H         3.634234        -2.183124        -0.470145
 H         4.411953         0.643323         0.241766
 H         3.153200         2.472218         1.780509
 H         0.578544         1.874642         1.804876
 H         0.217367         0.474851        -0.947702
 H         0.085708        -1.314799        -0.322415
 H        -1.109431         0.133669         0.224841
 H         1.679326        -1.228358         2.508729
