19
Iteration:  2788charge 0 multiplicity 1
 C         2.749798        -1.732100        -0.528674
 C         2.391731        -0.609323         0.456068
 O         3.443438        -0.850631         1.584679
 C         3.485689         0.367122         0.882700
 C         2.705643         1.555498         1.588329
 C         1.384320         1.306254         1.564240
 C         1.062130         0.057214         0.913697
 C         0.060449        -0.130306        -0.207022
 O         0.554372        -0.898768         1.943480
 H         2.816707        -2.665511        -0.068817
 H         2.154719        -1.861587        -1.454001
 H         3.781825        -1.533460        -0.925071
 H         4.467130         0.643576         0.355944
 H         3.265058         2.384984         2.066756
 H         0.611679         1.934058         1.954934
 H        -0.131731         0.672726        -0.888475
 H         0.279012        -1.050827        -0.778568
 H        -0.976952        -0.295994         0.186796
 H         1.248896        -0.873335         2.564705
