19
Iteration:  3552
 C         2.496353        -1.688233        -0.532003
 C         2.550935        -0.563696         0.487451
 O         3.386621        -0.755298         1.674099
 C         3.454846         0.515275         0.753515
 C         2.647453         1.634202         1.419416
 C         1.368004         1.216784         1.603287
 C         1.107296        -0.127494         0.965932
 C         0.112546        -0.120717        -0.204930
 O         0.739770        -1.058442         1.957553
 H         1.625924        -1.249888        -1.058955
 H         3.427942        -2.060134        -1.049844
 H         1.967923        -2.389349         0.104317
 H         4.508679         0.607851         0.522487
 H         3.201808         2.555143         1.694788
 H         0.669560         1.766429         2.223741
 H         0.582524         0.518527        -0.923957
 H         0.067460        -1.154136        -0.593663
 H        -0.918476         0.324509         0.014829
 H         1.561310        -1.159820         2.542893
