19
Iteration:   237
 C         2.758596        -1.504093        -0.607721
 C         2.470089        -0.713166         0.601044
 O         3.350919        -0.972592         1.720126
 C         3.524326         0.267738         0.867303
 C         2.912064         1.513173         1.461364
 C         1.518310         1.388873         1.364626
 C         1.066299        -0.035469         0.941317
 C        -0.028865        -0.166435        -0.168259
 O         0.380364        -0.787013         2.022688
 H         1.896311        -2.122757        -1.025633
 H         2.864628        -0.772961        -1.483377
 H         3.657918        -2.175832        -0.552831
 H         4.344479         0.285652         0.198957
 H         3.551748         2.415023         1.745908
 H         0.896884         2.300613         1.597189
 H         0.056567        -1.243316        -0.517698
 H        -1.058194        -0.177630         0.290601
 H         0.000300         0.658645        -0.958758
 H         0.995637        -0.891286         2.810931
