19
Iteration:   573
 C         2.744176        -1.728724        -0.569583
 C         2.423903        -0.716133         0.490802
 O         3.362944        -0.862172         1.705369
 C         3.435634         0.340291         0.916627
 C         2.793302         1.500637         1.562508
 C         1.464139         1.263363         1.429494
 C         1.121053        -0.105459         0.883001
 C         0.009644         0.093852        -0.253521
 O         0.500683        -0.820773         1.962240
 H         2.078833        -2.552106        -0.696451
 H         2.947814        -1.313230        -1.500565
 H         3.718545        -2.099262        -0.170156
 H         4.402299         0.458550         0.360922
 H         3.269528         2.300486         2.048911
 H         0.824431         1.888338         2.031826
 H        -0.560560        -0.812299        -0.393083
 H        -0.587881         0.948168        -0.071152
 H         0.605009         0.244807        -1.122555
 H         1.135928        -0.779257         2.815472
