19
Iteration:  4100charge 0 multiplicity 1
 C         2.654870        -1.774422        -0.509139
 C         2.498263        -0.561548         0.485592
 O         3.399353        -0.667364         1.627031
 C         3.450178         0.525102         0.697016
 C         2.665639         1.732521         1.301639
 C         1.426156         1.315031         1.564527
 C         1.084237        -0.094757         1.039418
 C         0.064006        -0.150979        -0.043565
 O         0.646301        -1.190759         1.989396
 H         1.651426        -2.059597        -0.835943
 H         3.216151        -1.492635        -1.373884
 H         3.181088        -2.621001        -0.023311
 H         4.336348         0.513658         0.148957
 H         3.262184         2.607310         1.593334
 H         0.607605         1.836820         2.025989
 H         0.072228         0.667397        -0.808807
 H        -0.037579        -1.029268        -0.679395
 H        -0.903015        -0.084072         0.441439
 H         1.327691        -1.362418         2.719679
