19
Iteration:  1969charge 0 multiplicity 1
 C         2.710634        -1.798911        -0.425349
 C         2.510360        -0.575055         0.451327
 O         3.406579        -0.788266         1.578502
 C         3.492685         0.426140         0.865164
 C         2.772896         1.449285         1.597182
 C         1.467184         1.285564         1.683083
 C         1.009972        -0.047625         0.908614
 C         0.075647         0.055225        -0.327831
 O         0.445109        -0.950002         1.865386
 H         2.128928        -2.573958         0.170453
 H         2.080603        -1.901439        -1.346667
 H         3.713033        -2.192647        -0.600266
 H         4.458821         0.521484         0.419679
 H         3.367802         2.287505         1.956997
 H         0.761731         1.981701         2.109923
 H         0.392122         1.002179        -0.836069
 H         0.415668        -0.747268        -1.056990
 H        -0.975571         0.173047        -0.092411
 H         1.113998        -1.137462         2.639930
