19
Iteration:  2430charge 0 multiplicity 1
 C         2.986023        -1.671596        -0.594815
 C         2.514715        -0.604935         0.358131
 O         3.195404        -0.902509         1.720315
 C         3.557153         0.306675         0.989111
 C         2.749068         1.505739         1.495478
 C         1.421490         1.275114         1.406965
 C         1.024758        -0.012912         0.924146
 C        -0.078862         0.019582        -0.137212
 O         0.533315        -0.896205         1.929310
 H         2.112822        -2.079887        -0.993216
 H         3.584850        -1.247148        -1.392052
 H         3.504799        -2.400069         0.081019
 H         4.569400         0.433013         0.595826
 H         3.202275         2.420465         1.899106
 H         0.717582         1.853465         2.054667
 H         0.092396         0.852307        -0.802443
 H        -0.254437        -0.886805        -0.705980
 H        -0.986243         0.224948         0.430533
 H         1.257333        -1.072291         2.629971
