19
Iteration:  4925charge 0 multiplicity 1
 C         2.533148        -1.840645        -0.370784
 C         2.516034        -0.597294         0.508151
 O         3.437754        -0.679750         1.645867
 C         3.486362         0.494459         0.683480
 C         2.637601         1.684112         1.265174
 C         1.396869         1.250971         1.656060
 C         1.102512        -0.122275         1.011880
 C         0.206606         0.033956        -0.144862
 O         0.584745        -1.151446         1.908210
 H         3.433412        -1.970266        -0.927168
 H         2.287185        -2.625531         0.263485
 H         1.721677        -1.913088        -1.086842
 H         4.428535         0.567850         0.119433
 H         3.109026         2.668277         1.512770
 H         0.704688         1.806481         2.278351
 H         0.559456         0.654834        -0.939521
 H        -0.096526        -0.960880        -0.506913
 H        -0.738718         0.608192        -0.009721
 H         1.246546        -1.242497         2.616745
