19
Iteration:  3849
 C         2.751475        -1.726125        -0.523893
 C         2.500400        -0.562534         0.434826
 O         3.335928        -0.693284         1.622240
 C         3.486854         0.526305         0.760212
 C         2.692920         1.653570         1.358580
 C         1.464908         1.125584         1.570178
 C         1.078669        -0.139685         0.906635
 C        -0.092331        -0.135060        -0.057116
 O         0.649488        -1.001866         2.039296
 H         2.623017        -2.568976         0.102103
 H         2.030143        -1.560919        -1.419096
 H         3.819861        -1.742725        -0.915010
 H         4.557366         0.633457         0.339861
 H         3.122229         2.484982         1.858994
 H         0.581772         1.518957         2.083527
 H         0.353873         0.231986        -1.044081
 H        -0.553645        -1.106643        -0.228652
 H        -0.872144         0.538888         0.162735
 H         1.536600        -1.073926         2.577211
