19
Iteration:  2303charge 0 multiplicity 1
 C         2.839100        -1.909327        -0.399253
 C         2.476918        -0.737262         0.524283
 O         3.352452        -0.697189         1.689783
 C         3.541455         0.483627         0.792373
 C         2.787595         1.637936         1.440956
 C         1.535514         1.173964         1.659857
 C         1.093746        -0.191613         0.881984
 C         0.004769         0.300486        -0.307782
 O         0.315089        -1.022023         1.813546
 H         2.885453        -2.878963         0.132710
 H         2.088269        -2.000238        -1.226716
 H         3.797280        -1.831290        -0.946013
 H         4.537633         0.378806         0.333816
 H         3.332449         2.289248         2.125077
 H         0.893746         1.720865         2.390661
 H         0.187677         1.308071        -0.589705
 H        -0.170302        -0.587777        -0.951086
 H        -0.864361         0.426681         0.373874
 H         0.835789        -1.276135         2.682296
