19
Iteration:  4789charge 0 multiplicity 1
 C         2.760631        -1.523379        -0.719059
 C         2.567088        -0.650195         0.517756
 O         3.325090        -0.993385         1.667656
 C         3.466011         0.421025         0.940428
 C         2.728901         1.670572         1.366184
 C         1.403438         1.442716         1.275336
 C         1.085915        -0.115994         1.017768
 C        -0.114783        -0.332738        -0.029182
 O         0.626053        -0.859791         2.122789
 H         3.824183        -1.665854        -0.963259
 H         2.392944        -2.484529        -0.336846
 H         2.282139        -1.011845        -1.527075
 H         4.497525         0.397978         0.499213
 H         3.277759         2.524769         1.754558
 H         0.601750         2.168089         1.307679
 H         0.384658        -0.001661        -1.005750
 H        -0.250597        -1.426271        -0.113661
 H        -0.888661         0.421580         0.207570
 H         1.450935        -1.083911         2.604502
