19
Iteration:  3428
 C         2.426611        -1.712013        -0.505822
 C         2.522440        -0.564558         0.492155
 O         3.511277        -0.743841         1.654231
 C         3.487831         0.525280         0.799982
 C         2.617541         1.668775         1.425835
 C         1.366634         1.198759         1.613833
 C         1.179864        -0.144758         0.950722
 C         0.140129        -0.108965        -0.186711
 O         0.688334        -1.091807         1.919023
 H         1.810319        -1.401260        -1.422953
 H         3.395222        -2.107606        -0.799993
 H         1.810324        -2.459378         0.142005
 H         4.358697         0.849629         0.259193
 H         3.023009         2.630292         1.607493
 H         0.561140         1.908848         1.848967
 H         0.346421         0.655219        -1.007658
 H        -0.231840        -1.085185        -0.526695
 H        -0.684180         0.280328         0.389887
 H         1.100202        -1.121107         2.753616
