19
Iteration:  4076charge 0 multiplicity 1
 C         2.580387        -1.802187        -0.446186
 C         2.496609        -0.563443         0.492850
 O         3.525440        -0.623872         1.579791
 C         3.476763         0.565316         0.656046
 C         2.644345         1.578969         1.449142
 C         1.379957         1.141659         1.562459
 C         1.091277        -0.185279         0.939312
 C        -0.009085        -0.114408        -0.143220
 O         0.663502        -0.993530         2.060435
 H         1.698201        -2.348159        -0.573582
 H         3.005004        -1.352945        -1.404173
 H         3.485949        -2.334943        -0.073110
 H         4.405767         0.739891         0.074870
 H         3.024784         2.512585         1.808514
 H         0.596519         1.693790         2.079537
 H         0.031500         0.760220        -0.835681
 H         0.081296        -0.831160        -0.967653
 H        -1.011712        -0.223045         0.206330
 H         1.304123        -1.048309         2.814128
