19
Iteration:  1474charge 0 multiplicity 1
 C         2.588300        -1.897582        -0.376098
 C         2.585468        -0.603093         0.481643
 O         3.333747        -0.833853         1.735987
 C         3.493871         0.476500         0.836847
 C         2.777684         1.462596         1.613789
 C         1.402137         1.226574         1.577431
 C         1.044350        -0.074680         0.797031
 C         0.043575         0.230003        -0.288708
 O         0.624802        -0.921263         1.782686
 H         1.795705        -2.530299        -0.029499
 H         2.330643        -1.840456        -1.455010
 H         3.479549        -2.430045        -0.357067
 H         4.411365         0.850991         0.342854
 H         3.398804         2.135353         2.213532
 H         0.664436         1.672823         2.214777
 H         0.511201         0.789811        -1.083836
 H        -0.281759        -0.773478        -0.648518
 H        -0.733938         0.777325         0.107077
 H         1.424043        -1.277656         2.186987
