19
Iteration:  4153charge 0 multiplicity 1
 C         2.746141        -1.684606        -0.630404
 C         2.535643        -0.634185         0.494840
 O         3.466458        -0.615286         1.604526
 C         3.410911         0.564786         0.720006
 C         2.697770         1.609373         1.381987
 C         1.401125         1.159851         1.428236
 C         1.008309        -0.234594         1.018864
 C        -0.067055        -0.090497        -0.061692
 O         0.660273        -1.093615         2.158643
 H         2.173771        -1.603690        -1.486915
 H         3.841582        -1.795189        -0.863364
 H         2.431405        -2.736608        -0.288567
 H         4.351969         0.671644         0.277105
 H         3.077895         2.617672         1.645896
 H         0.652903         1.747544         1.947083
 H         0.408882         0.305272        -0.967698
 H        -0.743967        -0.894058        -0.153193
 H        -0.728577         0.729594         0.077259
 H         1.278097        -0.850037         2.879552
