19
Iteration:   304charge 0 multiplicity 1
 C         2.694655        -1.864198        -0.410911
 C         2.468874        -0.633738         0.455626
 O         3.332690        -0.894470         1.693216
 C         3.508891         0.336044         0.874957
 C         2.793433         1.495208         1.496853
 C         1.473892         1.267635         1.466135
 C         1.060895        -0.041593         0.873145
 C        -0.045624         0.242383        -0.215753
 O         0.593504        -0.888819         1.898925
 H         2.552007        -2.738541         0.262981
 H         1.995120        -1.972359        -1.228326
 H         3.788568        -1.877838        -0.750351
 H         4.455751         0.447509         0.342934
 H         3.234660         2.281179         2.089328
 H         0.752572         1.844134         1.983685
 H        -0.584297        -0.694279        -0.545835
 H        -0.779163         1.024708         0.107675
 H         0.506726         0.575224        -1.131470
 H         1.357785        -0.846797         2.408554
