19
Iteration:  2213charge 0 multiplicity 1
 C         2.776832        -1.637501        -0.672427
 C         2.516247        -0.641525         0.463760
 O         3.353744        -0.852638         1.726860
 C         3.493631         0.394683         0.919328
 C         2.745756         1.538051         1.514819
 C         1.432929         1.187752         1.534103
 C         1.060139        -0.138763         0.919748
 C         0.059745        -0.037975        -0.203618
 O         0.491572        -0.854863         1.946663
 H         1.826480        -2.117043        -0.794181
 H         3.097599        -1.061487        -1.539272
 H         3.559036        -2.444459        -0.462266
 H         4.485150         0.592562         0.552666
 H         3.104926         2.455969         2.002295
 H         0.689912         1.674465         2.158370
 H         0.472856         0.085932        -1.218730
 H        -0.501632        -0.969593        -0.161100
 H        -0.747371         0.720438        -0.265774
 H         1.024342        -0.464119         2.742006
