19
Iteration:  3810
 C         2.504027        -1.693614        -0.466946
 C         2.531015        -0.607593         0.477222
 O         3.519865        -0.672736         1.549361
 C         3.401718         0.547377         0.734670
 C         2.669066         1.666299         1.522436
 C         1.405466         1.287380         1.468160
 C         1.065849        -0.179654         0.983366
 C         0.079151        -0.137510        -0.108245
 O         0.699250        -1.128295         2.020827
 H         1.614632        -2.397285        -0.525390
 H         2.406375        -1.451649        -1.477203
 H         3.304925        -2.392723        -0.280317
 H         4.296784         0.767512         0.195768
 H         3.026358         2.544083         2.054151
 H         0.607755         2.032902         1.714810
 H         0.564393         0.253645        -1.014103
 H        -0.182457        -1.226175        -0.281463
 H        -0.932028         0.346916         0.022641
 H         1.482969        -1.117241         2.637342
