19
Iteration:  3279
 C         2.688302        -1.687892        -0.670809
 C         2.507866        -0.544062         0.323705
 O         3.304484        -0.724836         1.629433
 C         3.514200         0.468537         0.866509
 C         2.687967         1.604319         1.440264
 C         1.348187         1.291578         1.503694
 C         1.074997        -0.089043         0.962195
 C        -0.106878        -0.229750        -0.062868
 O         0.801150        -1.018643         2.097273
 H         3.552374        -2.379218        -0.407604
 H         1.805826        -2.239757        -0.704616
 H         2.935664        -1.296390        -1.613997
 H         4.548352         0.616059         0.517688
 H         3.246194         2.393812         1.938897
 H         0.583093         1.925947         2.022224
 H         0.391433         0.000972        -1.062302
 H        -0.527066        -1.268892        -0.076423
 H        -0.872205         0.514651         0.208862
 H         1.632059        -0.998531         2.693899
