19
Iteration:  3560
 C         2.507470        -1.673940        -0.487051
 C         2.564250        -0.581984         0.408944
 O         3.329249        -0.680459         1.614431
 C         3.487618         0.501233         0.845092
 C         2.653943         1.614191         1.408044
 C         1.403711         1.174763         1.602630
 C         1.055984        -0.129456         0.963262
 C         0.117789        -0.120662        -0.193948
 O         0.748413        -1.020470         2.027906
 H         2.070941        -1.284179        -1.561688
 H         3.369130        -2.213013        -0.858250
 H         1.779607        -2.436106        -0.124872
 H         4.552206         0.562226         0.465014
 H         3.139514         2.551687         1.780885
 H         0.716287         1.742638         2.218993
 H         0.565754         0.540852        -0.993192
 H        -0.024517        -1.087690        -0.705535
 H        -0.908820         0.108038         0.083904
 H         1.572551        -1.539197         2.354658
