19
Iteration:  1061
 C         2.568343        -1.598980        -0.580906
 C         2.477494        -0.580098         0.482538
 O         3.270025        -0.881253         1.717801
 C         3.508564         0.278669         1.017205
 C         2.746517         1.511616         1.540928
 C         1.435641         1.407837         1.439320
 C         1.062222        -0.023857         0.932894
 C         0.087998        -0.053637        -0.249592
 O         0.689000        -0.955318         1.913246
 H         1.916086        -2.501888        -0.435015
 H         2.414356        -1.151940        -1.589965
 H         3.618119        -1.989428        -0.608482
 H         4.465621         0.445739         0.560335
 H         3.272102         2.111127         2.321960
 H         0.744650         2.225301         1.723179
 H         0.677956        -0.095633        -1.240093
 H        -0.315860        -1.143760        -0.278176
 H        -0.674320         0.790379        -0.268492
 H         1.452998        -1.467173         2.231875
