19
Iteration:  2201
 C         2.870440        -1.593914        -0.665099
 C         2.618853        -0.683410         0.519823
 O         3.359442        -0.942942         1.652586
 C         3.528291         0.423981         0.939734
 C         2.729113         1.512966         1.520163
 C         1.424616         1.298583         1.454437
 C         1.066211        -0.085777         0.904873
 C        -0.104465        -0.049007        -0.275721
 O         0.425340        -0.874863         2.062608
 H         2.099841        -2.262100        -1.033276
 H         3.255612        -1.123158        -1.570367
 H         3.683783        -2.196687        -0.215547
 H         4.538672         0.504892         0.528199
 H         3.243238         2.312458         2.033144
 H         0.721865         1.936402         2.006273
 H         0.239601         0.162616        -1.294957
 H        -0.674165        -0.960561        -0.259821
 H        -0.646370         0.738852         0.225111
 H         0.940742        -0.780254         2.857346
