19
Iteration:  1444
 C         2.503305        -1.770781        -0.484249
 C         2.492057        -0.620169         0.515869
 O         3.428197        -0.787784         1.640678
 C         3.457666         0.432364         0.879281
 C         2.773534         1.522481         1.540239
 C         1.466951         1.260707         1.636320
 C         1.091852        -0.124718         0.968179
 C         0.335663         0.154432        -0.316309
 O         0.390101        -1.029385         1.841873
 H         2.016528        -2.609193         0.089653
 H         1.907003        -1.691659        -1.393381
 H         3.600840        -2.089442        -0.649255
 H         4.262701         0.711463         0.250183
 H         3.315538         2.477981         1.604010
 H         0.670503         1.825449         2.159918
 H         0.847059         0.814065        -1.015063
 H         0.117892        -0.890688        -0.663320
 H        -0.700885         0.598286        -0.168835
 H         0.977022        -1.192031         2.690202
