19
Iteration:  1851charge 0 multiplicity 1
 C         2.771833        -1.686836        -0.763406
 C         2.508879        -0.649367         0.414347
 O         3.241497        -0.958406         1.645695
 C         3.571964         0.381245         1.094177
 C         2.742340         1.422901         1.695005
 C         1.419437         1.325814         1.393519
 C         1.127682        -0.074655         0.880181
 C        -0.035768        -0.202060        -0.300499
 O         0.557623        -0.607667         2.086541
 H         1.951122        -2.432476        -1.017165
 H         2.905047        -1.084802        -1.733829
 H         3.608910        -2.234817        -0.487080
 H         4.602464         0.646530         1.024563
 H         3.163504         2.235764         2.235064
 H         0.624686         1.917011         1.865743
 H         0.460318         0.452414        -1.061264
 H        -0.248674        -1.209646        -0.815656
 H        -0.915677         0.275718         0.090163
 H         1.341597        -0.578237         2.724955
