19
Iteration:  1296
 C         2.674972        -1.545046        -0.658899
 C         2.570556        -0.684789         0.523761
 O         3.331533        -0.946362         1.718874
 C         3.535530         0.331100         1.017500
 C         2.783608         1.524975         1.470315
 C         1.406722         1.336611         1.398837
 C         1.080167        -0.096141         0.950058
 C         0.113237        -0.026730        -0.157877
 O         0.435465        -0.881447         1.938878
 H         2.088995        -2.452840        -0.506168
 H         2.352327        -1.017810        -1.526575
 H         3.766114        -1.856182        -0.785664
 H         4.538204         0.391055         0.605178
 H         3.255072         2.486388         1.556350
 H         0.640781         2.022386         1.864007
 H         0.387040         0.690509        -0.954190
 H         0.101105        -0.993160        -0.662257
 H        -0.941756         0.236106         0.287391
 H         1.119113        -1.212496         2.576225
