19
Iteration:  2599
 C         2.611692        -1.662344        -0.459465
 C         2.557832        -0.728661         0.595172
 O         3.306901        -0.679972         1.806405
 C         3.534026         0.457910         0.817208
 C         2.787029         1.618015         1.243284
 C         1.538414         1.197536         1.593558
 C         1.080748        -0.147045         0.917445
 C         0.168011         0.131730        -0.226367
 O         0.387891        -1.152995         1.829944
 H         2.037370        -1.233922        -1.332563
 H         3.667651        -1.851618        -0.610430
 H         2.095471        -2.606456        -0.217580
 H         4.524791         0.433455         0.468649
 H         3.098600         2.501368         1.827844
 H         0.807326         1.613580         2.301139
 H         0.351829         1.177295        -0.647472
 H         0.237895        -0.772762        -0.844968
 H        -0.829870         0.295201         0.185827
 H         1.116051        -1.503951         2.412609
