19
Iteration:  4532charge 0 multiplicity 1
 C         2.704207        -1.597038        -0.707460
 C         2.559831        -0.653412         0.442376
 O         3.341272        -0.747079         1.638338
 C         3.455705         0.404774         0.826922
 C         2.667813         1.637417         1.341141
 C         1.422724         1.245802         1.452155
 C         1.106180        -0.199131         0.969335
 C        -0.138246        -0.248063         0.004803
 O         0.748254        -0.861663         2.133490
 H         1.874438        -2.153999        -1.203636
 H         3.274332        -1.143680        -1.543478
 H         3.355498        -2.462771        -0.380013
 H         4.505231         0.520211         0.483934
 H         2.825604         2.626893         1.732961
 H         0.628344         1.827999         1.866896
 H         0.136815         0.220021        -1.016954
 H        -0.467422        -1.333198        -0.013321
 H        -0.827205         0.538432         0.462410
 H         1.488263        -0.848658         2.809790
