19
Iteration:  1149charge 0 multiplicity 1
 C         2.780493        -1.766150        -0.487499
 C         2.482406        -0.655885         0.511726
 O         3.359137        -0.862906         1.649499
 C         3.494553         0.399206         0.856420
 C         2.779485         1.539194         1.409778
 C         1.457951         1.302396         1.568524
 C         1.087222        -0.127864         0.975759
 C         0.085696         0.191274        -0.175517
 O         0.405069        -0.962498         1.884572
 H         2.173130        -2.695312        -0.218415
 H         2.604266        -1.528890        -1.607112
 H         3.803669        -1.997281        -0.297767
 H         4.397982         0.466349         0.228028
 H         3.243035         2.419212         1.747252
 H         0.776020         1.807315         2.283352
 H         0.033292         1.272692        -0.564601
 H         0.211368        -0.495161        -1.153004
 H        -0.979735        -0.033848         0.329595
 H         1.052365        -1.462068         2.293936
