19
Iteration:  3173charge 0 multiplicity 1
 C         2.562808        -1.775327        -0.572307
 C         2.496759        -0.639449         0.440007
 O         3.596081        -0.610058         1.576809
 C         3.418910         0.481255         0.808383
 C         2.674215         1.585580         1.515067
 C         1.334930         1.275259         1.590445
 C         1.068173        -0.202834         0.978074
 C         0.091689        -0.074782        -0.271542
 O         0.577727        -1.009711         2.085252
 H         3.219309        -1.655076        -1.473286
 H         3.024108        -2.641635        -0.031000
 H         1.578295        -2.184674        -0.759088
 H         4.311059         0.709148         0.157688
 H         3.239367         2.405178         1.970200
 H         0.587680         1.949166         2.094652
 H         0.522154         0.760203        -0.769215
 H        -0.080052        -0.973411        -0.825268
 H        -0.797873         0.285631         0.192569
 H         1.409758        -1.395484         2.490783
