19
Iteration:  4128charge 0 multiplicity 1
 C         2.761374        -1.658110        -0.512992
 C         2.523135        -0.608548         0.508945
 O         3.420449        -0.685109         1.667798
 C         3.409774         0.481886         0.763787
 C         2.599831         1.627744         1.175752
 C         1.383800         1.234504         1.535543
 C         1.110202        -0.165365         1.011818
 C        -0.013205        -0.056680         0.025402
 O         0.687806        -1.120362         1.995611
 H         1.730403        -1.732663        -1.034101
 H         3.570727        -1.491521        -1.320247
 H         2.877990        -2.739901        -0.257260
 H         4.403264         0.531910         0.238311
 H         3.049547         2.608413         1.185217
 H         0.552207         1.738605         2.010270
 H         0.295083         0.567231        -0.817335
 H        -0.595322        -0.992544        -0.186968
 H        -0.841221         0.612434         0.383786
 H         1.493257        -1.346706         2.585120
