19
Iteration:  2272
 C         2.575575        -1.767712        -0.368613
 C         2.475568        -0.621193         0.546324
 O         3.432927        -0.794671         1.688793
 C         3.507350         0.391046         0.879405
 C         2.700969         1.544045         1.432114
 C         1.386314         1.250637         1.601429
 C         1.127416        -0.113362         0.959678
 C         0.205733         0.234133        -0.282229
 O         0.501214        -1.076920         1.769850
 H         2.067545        -2.702465         0.018887
 H         2.013269        -1.637888        -1.335986
 H         3.587469        -2.012964        -0.645523
 H         4.544685         0.595692         0.465817
 H         3.030667         2.559523         1.554611
 H         0.584886         1.988912         1.888113
 H         0.489535         1.066361        -0.960826
 H         0.191396        -0.747238        -0.838712
 H        -0.710388         0.223085         0.320012
 H         1.069601        -1.268949         2.474308
