19
Iteration:  2673charge 0 multiplicity 1
 C         2.725409        -1.683629        -0.641537
 C         2.494002        -0.610409         0.447512
 O         3.399944        -0.774013         1.762818
 C         3.442317         0.380962         0.879649
 C         2.710965         1.480835         1.546294
 C         1.415219         1.193588         1.572708
 C         1.106836        -0.077031         0.887121
 C         0.089766        -0.059363        -0.266520
 O         0.508769        -0.826782         1.954439
 H         3.679935        -1.436759        -1.370511
 H         3.013781        -2.628423        -0.106144
 H         1.891063        -1.955974        -1.292027
 H         4.319546         0.701235         0.337865
 H         3.163635         2.254919         2.187633
 H         0.498988         1.608550         1.963557
 H         0.452638         0.142466        -1.301893
 H        -0.404778        -1.023199         0.018225
 H        -0.706247         0.677264        -0.102231
 H         1.297131        -1.087339         2.586955
