19
Iteration:   714
 C         2.644212        -1.651806        -0.545079
 C         2.432963        -0.698601         0.612918
 O         3.346530        -0.834952         1.816303
 C         3.518713         0.335785         0.874643
 C         2.879326         1.525998         1.408927
 C         1.520899         1.281049         1.482786
 C         1.105218        -0.113680         0.940521
 C         0.152433         0.055871        -0.247130
 O         0.351099        -0.895909         1.865916
 H         2.277328        -2.658747        -0.325713
 H         2.222894        -1.344292        -1.468147
 H         3.745567        -1.856335        -0.827412
 H         4.475349         0.096829         0.346646
 H         3.357953         2.504738         1.673051
 H         0.722566         2.038089         1.831099
 H         0.442176        -0.488310        -1.117167
 H        -0.769039        -0.378153         0.060424
 H        -0.004502         1.062402        -0.526904
 H         0.877629        -0.965649         2.611997
