19
Iteration:  4660
 C         2.635434        -1.794565        -0.446716
 C         2.462137        -0.622916         0.486789
 O         3.508915        -0.605558         1.570560
 C         3.367580         0.525288         0.667026
 C         2.630084         1.662238         1.255342
 C         1.480508         1.154100         1.678875
 C         1.152744        -0.236250         1.086449
 C         0.171332         0.086037        -0.161621
 O         0.479161        -1.100448         2.004155
 H         3.506610        -2.410222        -0.011824
 H         1.690365        -2.440003        -0.429300
 H         2.746009        -1.649639        -1.564962
 H         4.313318         0.653583         0.078217
 H         3.005095         2.708743         1.306831
 H         0.672940         1.503168         2.289202
 H         0.873453         0.066842        -1.028187
 H        -0.456622        -0.821506        -0.048937
 H        -0.537818         0.889096         0.169398
 H         1.141822        -1.352502         2.744413
