19
Iteration:  4327charge 0 multiplicity 1
 C         2.515135        -1.693110        -0.531612
 C         2.474276        -0.643154         0.452447
 O         3.579101        -0.629775         1.506858
 C         3.451656         0.566936         0.740600
 C         2.607227         1.586822         1.445003
 C         1.332999         1.267372         1.479002
 C         1.153599        -0.184813         1.025767
 C         0.185615        -0.178043        -0.093489
 O         0.568689        -1.014001         2.164710
 H         1.703469        -1.905433        -1.206653
 H         3.300367        -1.541400        -1.294707
 H         2.618751        -2.693135        -0.029493
 H         4.258277         0.815255         0.077477
 H         3.099976         2.469703         1.781486
 H         0.500818         1.821796         1.927286
 H         0.628197         0.228733        -1.067070
 H         0.079854        -1.188253        -0.491924
 H        -0.818417         0.230156        -0.007442
 H         1.185393        -1.458934         2.855581
