19
Iteration:   462
 C         2.980993        -1.704298        -0.651225
 C         2.513856        -0.692425         0.473396
 O         3.207366        -0.869413         1.739849
 C         3.510026         0.268354         0.965941
 C         2.811585         1.486280         1.447904
 C         1.434905         1.347369         1.370848
 C         1.066726        -0.007901         0.871481
 C        -0.088238         0.083281        -0.035996
 O         0.460082        -0.894796         1.958113
 H         2.299542        -2.542211        -0.709502
 H         3.052089        -1.267050        -1.645076
 H         3.880604        -2.134239        -0.346320
 H         4.552423         0.259997         0.737026
 H         3.342043         2.428476         1.657982
 H         0.760476         2.154467         1.651266
 H        -0.699801        -0.777477         0.041329
 H        -0.622857         0.972660         0.035990
 H         0.259072        -0.072427        -1.033791
 H         1.288324        -1.030927         2.634759
