19
Iteration:  1986charge 0 multiplicity 1
 C         2.463411        -1.839747        -0.374645
 C         2.486704        -0.624457         0.495376
 O         3.410916        -0.761675         1.640037
 C         3.524759         0.473076         0.788710
 C         2.724526         1.570468         1.577228
 C         1.459459         1.191547         1.654941
 C         1.169317        -0.062490         0.899346
 C         0.259093         0.114656        -0.273450
 O         0.473923        -0.998458         1.748222
 H         2.065157        -2.702806         0.123737
 H         1.953108        -1.699011        -1.312239
 H         3.579353        -2.039623        -0.517104
 H         4.474585         0.699803         0.241869
 H         3.087174         2.389160         2.175165
 H         0.655746         1.524808         2.338178
 H         0.338713         0.972194        -0.915878
 H         0.147058        -0.704237        -0.946395
 H        -0.758116        -0.123101         0.154822
 H         0.817428        -0.895780         2.722948
