19
Iteration:  3546
 C         2.465562        -1.680321        -0.535611
 C         2.547171        -0.576025         0.535504
 O         3.412438        -0.785627         1.693749
 C         3.441429         0.539806         0.745463
 C         2.659162         1.621774         1.411529
 C         1.371751         1.270308         1.596244
 C         1.153223        -0.129248         0.972245
 C         0.108557        -0.111254        -0.198716
 O         0.723740        -1.089113         1.933876
 H         1.644681        -1.448487        -1.175186
 H         3.373906        -1.884390        -1.086111
 H         2.206873        -2.579857         0.106113
 H         4.440928         0.706626         0.348773
 H         3.089498         2.543968         1.737389
 H         0.552716         1.740021         2.166833
 H         0.534128         0.542955        -1.006068
 H        -0.043028        -1.139832        -0.515193
 H        -0.815051         0.371446         0.037980
 H         1.442376        -0.946296         2.521004
