19
Iteration:  2348
 C         2.672792        -1.734591        -0.507230
 C         2.507867        -0.763874         0.581399
 O         3.395065        -0.820965         1.656416
 C         3.424730         0.426150         0.902941
 C         2.740026         1.599793         1.495938
 C         1.458413         1.299600         1.536836
 C         1.110486        -0.103733         0.949083
 C         0.247981         0.122385        -0.260582
 O         0.347781        -1.007237         1.852657
 H         2.740100        -2.814525        -0.188443
 H         1.966408        -1.722137        -1.365978
 H         3.605570        -1.606065        -0.997927
 H         4.381865         0.681435         0.376967
 H         3.236244         2.497065         1.821236
 H         0.584082         1.739277         2.042517
 H         0.831900         0.696816        -0.963395
 H        -0.108155        -0.900984        -0.481845
 H        -0.529039         0.800426         0.095845
 H         1.011141        -1.139650         2.632061
