19
Iteration:  3575
 C         2.587574        -1.761010        -0.646614
 C         2.436011        -0.538322         0.458917
 O         3.361417        -0.722715         1.625026
 C         3.493787         0.531305         0.810186
 C         2.691905         1.614698         1.460808
 C         1.398558         1.234949         1.543677
 C         1.171205        -0.130504         0.958799
 C         0.056731        -0.109891        -0.165517
 O         0.684587        -1.029922         2.075627
 H         2.684484        -1.485458        -1.658414
 H         3.467846        -2.171255        -0.067535
 H         1.736117        -2.404029        -0.498286
 H         4.383812         0.715086         0.265752
 H         3.118319         2.500502         1.898022
 H         0.578363         1.749793         2.055420
 H         0.264067         0.624851        -0.898324
 H        -0.011150        -1.108700        -0.618402
 H        -0.916358         0.194374         0.351182
 H         1.493370        -1.529276         2.414808
