19
Iteration:  3731charge 0 multiplicity 1
 C         2.839635        -1.663160        -0.519243
 C         2.477948        -0.580230         0.465974
 O         3.453351        -0.726617         1.571239
 C         3.466520         0.494347         0.705914
 C         2.704748         1.583502         1.331059
 C         1.451657         1.199237         1.535053
 C         1.022128        -0.076798         1.009896
 C        -0.148714        -0.076683         0.002455
 O         0.589504        -1.096483         2.051533
 H         2.598240        -2.579475        -0.095422
 H         2.481409        -1.548814        -1.506600
 H         3.936276        -1.713354        -0.788370
 H         4.305507         0.803268        -0.021664
 H         3.204850         2.510502         1.650820
 H         0.655908         1.728270         2.040808
 H        -0.045047         0.531227        -0.949999
 H        -0.355390        -1.088490        -0.294067
 H        -1.032289         0.343285         0.397607
 H         1.359727        -1.246673         2.726419
