19
Iteration:   562
 C         2.763742        -1.704040        -0.531109
 C         2.484915        -0.602646         0.460187
 O         3.423966        -0.916232         1.655743
 C         3.504035         0.291404         0.933553
 C         2.783871         1.412447         1.593211
 C         1.475911         1.285771         1.505408
 C         0.979177        -0.013853         0.862720
 C        -0.005688        -0.026862        -0.308388
 O         0.476818        -0.740170         1.979021
 H         2.006787        -2.467209        -0.572084
 H         2.936140        -1.310927        -1.483566
 H         3.706138        -2.214062        -0.218438
 H         4.476943         0.473621         0.411348
 H         3.319315         2.167125         2.103389
 H         0.672417         1.886991         1.915062
 H        -0.445173        -1.013157        -0.406810
 H        -0.839387         0.582315        -0.023196
 H         0.310797         0.352627        -1.238678
 H         1.170325        -0.527657         2.667144
