19
Iteration:  1857
 C         2.741219        -1.659188        -0.757056
 C         2.525119        -0.633249         0.459226
 O         3.237205        -1.000099         1.629263
 C         3.523204         0.365949         1.104470
 C         2.738834         1.465177         1.645699
 C         1.413051         1.364547         1.400491
 C         1.110736        -0.084889         0.853136
 C         0.023353        -0.232013        -0.291888
 O         0.557552        -0.616047         2.088178
 H         1.844351        -2.206537        -0.927701
 H         3.006816        -0.962148        -1.512110
 H         3.740253        -2.256184        -0.618574
 H         4.640176         0.552104         1.079042
 H         3.274668         2.212269         2.291503
 H         0.723868         2.048711         1.921494
 H         0.266799         0.286074        -1.236651
 H        -0.164795        -1.246131        -0.529155
 H        -0.850104         0.407726         0.016177
 H         1.448151        -0.879262         2.567317
