19
Iteration:  1540charge 0 multiplicity 1
 C         2.679509        -1.469797        -0.772909
 C         2.475866        -0.779228         0.654120
 O         3.282329        -0.915933         1.851789
 C         3.491563         0.251530         1.044713
 C         2.818023         1.465630         1.337944
 C         1.479808         1.280658         1.423913
 C         1.083703        -0.120849         0.922696
 C         0.161997        -0.017453        -0.237693
 O         0.443649        -0.780391         2.005298
 H         2.133703        -2.316085        -1.091856
 H         2.450922        -0.693307        -1.471652
 H         3.744531        -1.547104        -0.693424
 H         4.340863         0.236183         0.401834
 H         3.305040         2.423220         1.673465
 H         0.761471         2.085030         1.803931
 H         0.593033         0.673653        -0.918864
 H         0.052009        -0.991925        -0.741654
 H        -0.796350         0.391915        -0.089042
 H         1.066918        -1.320138         2.454019
