19
Iteration:  4466charge 0 multiplicity 1
 C         2.590368        -1.679591        -0.672730
 C         2.469287        -0.633796         0.479617
 O         3.455728        -0.695488         1.593886
 C         3.429141         0.485781         0.698234
 C         2.667544         1.590811         1.363097
 C         1.343858         1.292466         1.556461
 C         1.160003        -0.148637         1.034278
 C         0.046083        -0.306406        -0.067419
 O         0.684527        -0.893960         2.152318
 H         2.584814        -1.131310        -1.649245
 H         3.541939        -2.245808        -0.566813
 H         1.631712        -2.224411        -0.594174
 H         4.388316         0.673996         0.202261
 H         3.178475         2.530191         1.706947
 H         0.620805         1.929776         2.107009
 H         0.312341         0.238487        -1.074855
 H         0.105996        -1.425240        -0.477464
 H        -0.948194        -0.056378         0.482500
 H         1.429578        -0.926803         2.727219
