19
Iteration:  4482charge 0 multiplicity 1
 C         2.653726        -1.542534        -0.594052
 C         2.508868        -0.576798         0.536170
 O         3.503963        -0.779543         1.503143
 C         3.426965         0.448069         0.764867
 C         2.735853         1.618132         1.363252
 C         1.411197         1.228688         1.463842
 C         1.031454        -0.143482         1.002212
 C        -0.033331        -0.350922        -0.070365
 O         0.607300        -0.886979         2.198662
 H         2.419546        -1.197710        -1.584449
 H         3.728221        -1.764394        -0.652226
 H         2.191337        -2.513889        -0.575179
 H         4.199060         0.634114        -0.016341
 H         3.129737         2.588352         1.610137
 H         0.589519         1.783659         1.907671
 H         0.246921         0.204175        -0.935889
 H        -0.097905        -1.403842        -0.046266
 H        -0.861326         0.247009         0.222414
 H         1.421871        -0.951109         2.751846
