19
Iteration:  1317
 C         2.456795        -1.610340        -0.660022
 C         2.503234        -0.619749         0.515377
 O         3.234904        -0.865047         1.851061
 C         3.549291         0.383113         1.049128
 C         2.845111         1.566179         1.557132
 C         1.456731         1.331265         1.426695
 C         1.150471        -0.079655         0.857876
 C         0.090252        -0.106859        -0.273103
 O         0.669150        -0.937154         1.863671
 H         1.730692        -2.377029        -0.362356
 H         2.032654        -1.078608        -1.477370
 H         3.516100        -2.013481        -0.936197
 H         4.524775         0.293220         0.654986
 H         3.341541         2.355740         2.094141
 H         0.598281         2.065695         1.566306
 H         0.123982         0.697868        -1.046546
 H         0.134601        -0.971205        -0.911569
 H        -0.896244         0.085687         0.367051
 H         1.370504        -1.456097         2.442797
