19
Iteration:  3298
 C         2.546566        -1.595072        -0.700039
 C         2.449398        -0.634212         0.513224
 O         3.363505        -0.797808         1.580464
 C         3.415194         0.544482         0.836224
 C         2.729166         1.658933         1.533470
 C         1.416073         1.360626         1.466895
 C         1.135734        -0.149715         1.005707
 C         0.097962        -0.326502        -0.068744
 O         0.709570        -1.006522         2.037501
 H         3.284292        -2.407429        -0.510146
 H         1.610160        -2.139362        -0.809235
 H         2.848827        -1.214454        -1.690349
 H         4.318021         0.730250         0.300376
 H         3.031729         2.727006         1.614637
 H         0.632058         2.095628         1.651934
 H         0.449113         0.157500        -1.022280
 H         0.139897        -1.422493        -0.140140
 H        -0.816317         0.023368         0.407774
 H         1.415672        -0.849902         2.770380
