19
Iteration:  3554charge 0 multiplicity 1
 C         2.500286        -1.681080        -0.521349
 C         2.555036        -0.569932         0.460635
 O         3.372303        -0.736030         1.659655
 C         3.466276         0.510497         0.772058
 C         2.647639         1.637883         1.420329
 C         1.373919         1.196359         1.602925
 C         1.084617        -0.124739         0.963855
 C         0.116323        -0.120213        -0.203219
 O         0.750338        -1.046553         1.976635
 H         1.766847        -1.257111        -1.099691
 H         3.414593        -2.112838        -1.025273
 H         1.886974        -2.379367         0.065288
 H         4.491095         0.567897         0.550841
 H         3.195634         2.517512         1.687285
 H         0.698755         1.780590         2.239839
 H         0.592837         0.495634        -0.921143
 H         0.052130        -1.128285        -0.631538
 H        -0.927249         0.258741         0.029490
 H         1.503145        -1.271493         2.477327
