19
Iteration:  3905
 C         2.674265        -1.503920        -0.586729
 C         2.568187        -0.620142         0.549627
 O         3.444927        -0.830619         1.636190
 C         3.484789         0.492583         0.795577
 C         2.713710         1.624626         1.299612
 C         1.378330         1.275850         1.448220
 C         1.101670        -0.183670         0.941614
 C         0.068826        -0.226090        -0.098445
 O         0.494695        -0.989622         2.163511
 H         3.011471        -2.502286        -0.291956
 H         1.660404        -1.816108        -0.913160
 H         3.414680        -1.198369        -1.388549
 H         4.543797         0.532892         0.438390
 H         3.028285         2.672071         1.338207
 H         0.544916         1.933609         1.909444
 H         0.117076         0.612524        -0.823375
 H        -0.040821        -1.101868        -0.745331
 H        -0.929842        -0.089757         0.300247
 H         1.302389        -1.098344         2.691491
