19
Iteration:  4821
 C         2.571509        -1.490103        -0.701874
 C         2.514703        -0.597075         0.479747
 O         3.255315        -0.770001         1.725095
 C         3.600237         0.312372         0.900036
 C         2.687330         1.518336         1.441490
 C         1.332243         1.292581         1.367344
 C         1.131661        -0.060045         0.895550
 C         0.043329        -0.429774        -0.110897
 O         0.770280        -0.743415         2.129559
 H         3.373576        -2.251478        -0.603559
 H         1.590340        -2.158930        -0.731679
 H         2.638554        -0.826880        -1.597210
 H         4.625809         0.346651         0.417458
 H         3.133185         2.245188         2.127782
 H         0.582548         2.001572         1.638890
 H         0.372744        -0.285772        -1.202860
 H        -0.273665        -1.488736        -0.216497
 H        -1.002536        -0.023827         0.011426
 H         1.543188        -0.754699         2.729774
