19
Iteration:   399charge 0 multiplicity 1
 C         2.409346        -1.824006        -0.529518
 C         2.519167        -0.704935         0.575237
 O         3.442295        -0.838229         1.623716
 C         3.410973         0.476516         0.822667
 C         2.749276         1.629639         1.485645
 C         1.401459         1.387134         1.553754
 C         1.115428        -0.118658         1.016222
 C         0.410657         0.024361        -0.326940
 O         0.433059        -0.975312         1.974590
 H         1.417262        -2.311879        -0.396050
 H         2.553673        -1.509888        -1.563141
 H         3.168990        -2.599023        -0.265285
 H         4.385124         0.596121         0.405928
 H         3.279745         2.489504         1.881609
 H         0.656305         2.004504         2.003163
 H        -0.139488        -0.868006        -0.739483
 H        -0.360161         0.808759        -0.206429
 H         1.191113         0.506751        -0.949382
 H         1.203830        -1.407697         2.590986
