19
Iteration:  4194
 C         2.591834        -1.657417        -0.603862
 C         2.489095        -0.538447         0.453319
 O         3.522729        -0.732510         1.523983
 C         3.447356         0.556037         0.759183
 C         2.710748         1.648579         1.446106
 C         1.391739         1.284631         1.546043
 C         1.064943        -0.157347         1.010907
 C         0.055701        -0.423632        -0.111046
 O         0.587950        -0.911666         2.138762
 H         2.616991        -1.010538        -1.541735
 H         3.492391        -2.336151        -0.345333
 H         1.630326        -2.253543        -0.590603
 H         4.296480         0.896933         0.161953
 H         3.176886         2.580116         1.794391
 H         0.712585         1.825653         2.203342
 H         0.407963         0.164374        -1.042268
 H         0.089200        -1.521195        -0.394563
 H        -1.035450        -0.205706         0.075239
 H         1.390048        -1.240672         2.567530
