19
Iteration:  3220
 C         2.798921        -1.610226        -0.689097
 C         2.453358        -0.545340         0.401324
 O         3.486397        -0.731153         1.623506
 C         3.491753         0.422448         0.835905
 C         2.713327         1.671726         1.300286
 C         1.439833         1.257063         1.544623
 C         1.071534        -0.181062         1.088342
 C        -0.019270        -0.141041        -0.052982
 O         0.461234        -1.102321         2.081899
 H         3.743191        -1.391438        -1.077318
 H         2.896079        -2.663385        -0.248602
 H         2.010110        -1.825712        -1.471118
 H         4.381400         0.653677         0.242470
 H         3.095012         2.674897         1.526450
 H         0.640347         1.758504         2.045419
 H         0.593309         0.204998        -0.885886
 H        -0.480088        -1.163022        -0.119359
 H        -0.770712         0.679525         0.169026
 H         0.897050        -0.944404         2.890665
