19
Iteration:  2636charge 0 multiplicity 1
 C         2.589521        -1.801875        -0.499501
 C         2.467822        -0.547088         0.462733
 O         3.512913        -0.804382         1.593195
 C         3.469274         0.440793         0.950869
 C         2.676224         1.543621         1.600110
 C         1.359458         1.265682         1.517730
 C         1.109120        -0.023604         0.903569
 C         0.166353         0.028610        -0.275523
 O         0.506018        -1.034292         1.928359
 H         3.013707        -1.719909        -1.464119
 H         3.252894        -2.436552         0.105125
 H         1.589726        -2.342097        -0.510951
 H         4.468190         0.659600         0.448322
 H         3.209034         2.370227         2.042330
 H         0.619006         2.037237         1.770103
 H         0.599663         0.694267        -0.992839
 H         0.181349        -0.890954        -0.863052
 H        -0.883500         0.288660        -0.025852
 H         1.154699        -0.982427         2.721419
