19
Iteration:  2723
 C         2.766366        -1.466364        -0.637337
 C         2.528219        -0.619312         0.592389
 O         3.270208        -0.992174         1.795578
 C         3.481348         0.329708         0.959901
 C         2.709565         1.570426         1.351219
 C         1.389060         1.340512         1.337149
 C         1.123752        -0.084475         0.906851
 C         0.050273        -0.074809        -0.110623
 O         0.598921        -0.983515         1.954786
 H         3.692563        -1.909968        -0.534194
 H         2.037982        -2.304061        -0.741856
 H         2.716243        -0.841149        -1.552331
 H         4.564373         0.394422         0.608173
 H         3.010213         2.614611         1.478885
 H         0.523111         1.900710         1.612710
 H         0.429395         0.612010        -0.846021
 H        -0.308603        -1.067397        -0.367699
 H        -0.831581         0.370864         0.427170
 H         1.236865        -0.984142         2.617049
