19
Iteration:  3513
 C         2.802115        -1.653984        -0.557799
 C         2.567596        -0.637705         0.455530
 O         3.517013        -0.724240         1.611921
 C         3.457997         0.489834         0.732697
 C         2.719228         1.550384         1.393528
 C         1.403670         1.273094         1.557292
 C         1.033692        -0.182054         1.042306
 C        -0.006307         0.016140        -0.032880
 O         0.417478        -1.090768         1.977823
 H         1.991085        -1.993849        -1.079778
 H         3.560860        -1.600947        -1.332648
 H         3.011991        -2.603002        -0.007933
 H         4.363077         0.728939         0.221509
 H         3.109049         2.527524         1.524952
 H         0.534532         1.839530         1.961435
 H         0.554319         0.223025        -0.964115
 H        -0.550289        -0.882174        -0.318342
 H        -0.773840         0.734042         0.176582
 H         1.073450        -1.069744         2.792336
