19
Iteration:  3804
 C         2.467900        -1.683944        -0.494015
 C         2.506965        -0.575494         0.518494
 O         3.524280        -0.652504         1.527611
 C         3.427885         0.563775         0.796641
 C         2.675024         1.615763         1.461412
 C         1.367339         1.259632         1.441070
 C         1.121488        -0.195157         1.034830
 C         0.105893        -0.130382        -0.173262
 O         0.677123        -1.131065         2.074332
 H         1.574727        -2.311348        -0.408266
 H         2.672008        -1.278063        -1.587690
 H         3.257765        -2.456404        -0.332768
 H         4.334425         0.658431         0.150816
 H         3.027184         2.595743         1.873287
 H         0.619045         1.900998         1.869305
 H         0.365320         0.377358        -1.114788
 H        -0.190481        -1.140884        -0.436355
 H        -0.861748         0.301135         0.128494
 H         1.479533        -1.224601         2.703923
