19
Iteration:  2523
 C         2.650000        -1.705956        -0.562115
 C         2.486294        -0.620220         0.504897
 O         3.365502        -0.745027         1.691869
 C         3.485623         0.448285         0.934627
 C         2.754692         1.416967         1.587296
 C         1.435040         1.229227         1.581256
 C         1.111968        -0.043196         0.877658
 C         0.129829        -0.068628        -0.351257
 O         0.500582        -0.848409         1.942327
 H         1.710395        -1.855900        -1.229126
 H         3.299081        -1.396662        -1.396006
 H         2.987425        -2.712311        -0.350233
 H         4.484460         0.435189         0.596702
 H         3.200366         2.132112         2.304894
 H         0.575224         1.765191         1.857164
 H         0.736184        -0.122582        -1.333514
 H        -0.382092        -1.070307        -0.329645
 H        -0.686972         0.672795        -0.243102
 H         1.136902        -1.087248         2.609490
