19
Iteration:   606charge 0 multiplicity 1
 C         2.603665        -1.680998        -0.550694
 C         2.510889        -0.655181         0.559256
 O         3.236927        -0.836077         1.839883
 C         3.526450         0.342838         0.945532
 C         2.752848         1.579829         1.166010
 C         1.526626         1.272644         1.610504
 C         1.134284        -0.118359         0.994840
 C         0.173009         0.219199        -0.208589
 O         0.474964        -1.086271         1.851964
 H         1.962402        -2.506801        -0.337560
 H         2.396639        -1.307413        -1.492669
 H         3.648456        -2.062845        -0.480347
 H         4.610424         0.483387         0.661803
 H         3.025371         2.599941         1.095374
 H         0.746609         1.911906         2.049286
 H        -0.559882        -0.556210        -0.337422
 H        -0.281347         1.179748        -0.255594
 H         0.786050         0.115739        -1.068554
 H         1.096544        -1.492690         2.398564
