19
Iteration:   721charge 0 multiplicity 1
 C         2.665469        -1.606907        -0.541165
 C         2.545104        -0.699315         0.613165
 O         3.294265        -0.901439         1.860919
 C         3.568911         0.294864         0.879937
 C         2.823156         1.550828         1.332344
 C         1.529674         1.297480         1.506207
 C         1.087411        -0.090771         0.946306
 C         0.112133         0.038132        -0.238053
 O         0.371730        -0.903843         1.842323
 H         2.072388        -2.553677        -0.327406
 H         2.033570        -1.162881        -1.372182
 H         3.695923        -1.908352        -0.803901
 H         4.552098         0.316703         0.381298
 H         3.215379         2.529046         1.483092
 H         0.857052         2.052271         1.841912
 H         0.425379        -0.492092        -1.201320
 H        -0.854931        -0.382295         0.181182
 H        -0.053545         1.134582        -0.495007
 H         0.976153        -0.933573         2.580235
