19
Iteration:  1723
 C         2.625541        -1.925443        -0.289323
 C         2.532916        -0.645023         0.479638
 O         3.551883        -0.737886         1.500731
 C         3.435809         0.544272         0.795391
 C         2.770472         1.516656         1.640472
 C         1.476372         1.152555         1.683019
 C         1.100152        -0.083879         0.910336
 C         0.234298         0.203579        -0.280576
 O         0.219163        -0.972336         1.768894
 H         1.959303        -2.703288         0.133221
 H         2.432088        -1.960783        -1.401692
 H         3.644036        -2.130680        -0.319687
 H         4.233539         0.873577         0.155352
 H         3.242588         2.203722         2.293242
 H         0.581092         1.571227         2.219911
 H         0.966898         0.507612        -1.009388
 H        -0.168957        -0.812032        -0.490568
 H        -0.529940         0.942294        -0.327044
 H         0.753787        -1.143537         2.651855
