19
Iteration:  1630
 C         2.739296        -1.669731        -0.576198
 C         2.538035        -0.617132         0.445176
 O         3.165146        -0.893664         1.811673
 C         3.556878         0.300071         1.032214
 C         2.786353         1.544234         1.505763
 C         1.445958         1.294640         1.465627
 C         1.109925        -0.093730         0.780943
 C        -0.039538         0.050047        -0.238173
 O         0.611105        -0.916131         1.921443
 H         2.022332        -2.453531        -0.415334
 H         2.486718        -1.254763        -1.516329
 H         3.856971        -1.962514        -0.620887
 H         4.518684         0.348149         0.497068
 H         3.387200         2.305926         1.933612
 H         0.757867         1.869298         2.055096
 H         0.366341         0.666549        -1.057113
 H        -0.536242        -0.856567        -0.489537
 H        -0.805739         0.818983         0.091957
 H         1.438252        -1.097198         2.308847
