19
Iteration:  4695
 C         2.452669        -1.778665        -0.372670
 C         2.550215        -0.659354         0.596127
 O         3.552383        -0.645172         1.594318
 C         3.462343         0.535935         0.676886
 C         2.693250         1.625299         1.393413
 C         1.358656         1.269463         1.508129
 C         1.127216        -0.123784         1.034406
 C         0.071611        -0.025670        -0.175729
 O         0.618118        -1.155778         1.896702
 H         3.501000        -2.199278        -0.620573
 H         1.848213        -2.525440         0.289603
 H         1.873232        -1.363928        -1.278644
 H         4.450733         0.798922         0.215198
 H         3.345097         2.466859         1.642078
 H         0.628413         1.752701         2.182112
 H         0.327267         0.574029        -1.076124
 H        -0.115327        -1.133014        -0.415132
 H        -0.845994         0.544449         0.072375
 H         1.237720        -1.086347         2.697394
