19
Iteration:  4849
 C         2.741362        -1.676960        -0.666477
 C         2.478818        -0.678645         0.513752
 O         3.364246        -0.842525         1.614962
 C         3.441097         0.412213         0.847095
 C         2.676750         1.627462         1.500964
 C         1.390484         1.318094         1.390253
 C         1.120835        -0.114320         0.927167
 C        -0.002042        -0.265437        -0.136978
 O         0.671755        -0.760960         2.168826
 H         3.541802        -2.283575        -0.283587
 H         1.916831        -2.260885        -1.013847
 H         3.049669        -1.179441        -1.603695
 H         4.332019         0.561426         0.255784
 H         3.220102         2.545798         1.868625
 H         0.553834         1.945341         1.767489
 H         0.072719         0.271606        -1.047834
 H        -0.333147        -1.249632        -0.455904
 H        -0.979066        -0.018031         0.230812
 H         1.445461        -1.006804         2.736798
