19
Iteration:    48
 C         2.425968        -1.854847        -0.341386
 C         2.577065        -0.623912         0.579890
 O         3.425187        -0.666732         1.785771
 C         3.517319         0.455187         0.816577
 C         2.766421         1.601625         1.314521
 C         1.493519         1.230497         1.598124
 C         1.161719        -0.114272         0.900269
 C         0.149098         0.189504        -0.173669
 O         0.469479        -1.185365         1.694266
 H         1.822006        -2.661884         0.068582
 H         1.788247        -1.546769        -1.167281
 H         3.439419        -2.178242        -0.708552
 H         4.563120         0.562931         0.482273
 H         3.186318         2.586898         1.574981
 H         0.679706         1.861397         2.025258
 H        -0.216102        -0.791217        -0.566626
 H        -0.670044         0.785249         0.309484
 H         0.434373         0.842696        -1.008858
 H         1.131435        -1.303519         2.471045
