19
Iteration:  4280
 C         2.849157        -1.648405        -0.566785
 C         2.431631        -0.662413         0.433152
 O         3.351471        -0.655596         1.622582
 C         3.464782         0.465181         0.762381
 C         2.720905         1.588281         1.351269
 C         1.362741         1.308645         1.456443
 C         1.040109        -0.119364         0.973363
 C        -0.109966        -0.195548         0.067294
 O         0.729396        -1.041949         2.016874
 H         2.233560        -1.953469        -1.423068
 H         3.674920        -1.408890        -1.208214
 H         2.986434        -2.603254        -0.137796
 H         4.383403         0.607112         0.179773
 H         3.223238         2.458587         1.860944
 H         0.588475         1.922295         1.957292
 H         0.045032         0.207938        -0.945308
 H        -0.530084        -1.209664        -0.141619
 H        -0.799042         0.507854         0.608646
 H         1.350066        -1.067745         2.787405
