19
Iteration:  1377charge 0 multiplicity 1
 C         2.834297        -1.757145        -0.584025
 C         2.547498        -0.692212         0.567482
 O         3.402677        -0.831741         1.648465
 C         3.478665         0.387366         0.858321
 C         2.734279         1.495938         1.479406
 C         1.446894         1.269839         1.516869
 C         1.071230        -0.081476         0.965463
 C         0.094935         0.151040        -0.230667
 O         0.305356        -0.912618         1.969962
 H         2.211334        -2.670712        -0.614792
 H         2.607026        -1.339285        -1.598058
 H         3.876548        -2.018852        -0.607775
 H         4.474788         0.521480         0.381471
 H         3.333542         2.265707         1.932407
 H         0.758373         1.700694         2.171654
 H         0.534395         0.643386        -1.102934
 H        -0.420294        -0.855418        -0.411916
 H        -0.615388         0.850957         0.138384
 H         0.970185        -1.334678         2.442684
