19
Iteration:  3235
 C         2.885882        -1.686630        -0.701873
 C         2.554534        -0.670922         0.427782
 O         3.451734        -0.718797         1.637389
 C         3.433566         0.473723         0.797425
 C         2.683774         1.578707         1.372885
 C         1.361585         1.283609         1.472651
 C         1.025449        -0.151371         1.015744
 C        -0.097334        -0.018762         0.050145
 O         0.568742        -1.083961         2.060957
 H         4.009393        -1.568950        -0.892601
 H         2.686956        -2.640364        -0.302114
 H         2.423626        -1.455567        -1.629175
 H         4.380458         0.609406         0.278609
 H         3.163181         2.521423         1.723001
 H         0.665882         2.032598         1.888959
 H         0.047383        -0.044743        -1.080789
 H        -0.763851        -0.909256         0.112307
 H        -0.810670         0.787788         0.200494
 H         1.262495        -1.059192         2.809337
