19
Iteration:  3771charge 0 multiplicity 1
 C         2.719435        -1.692570        -0.685486
 C         2.528839        -0.696806         0.558727
 O         3.471854        -0.706496         1.640728
 C         3.323190         0.540858         0.697279
 C         2.584105         1.642308         1.218960
 C         1.433562         1.159543         1.582863
 C         1.142602        -0.174858         1.120403
 C         0.093482        -0.045334        -0.060449
 O         0.569331        -1.021320         2.088773
 H         1.734035        -2.215562        -0.774930
 H         2.858730        -0.974189        -1.607066
 H         3.637267        -2.262826        -0.538126
 H         4.253846         0.526392         0.124424
 H         2.999681         2.657904         1.502110
 H         0.702217         1.740165         2.123612
 H         0.291313         0.632063        -0.877873
 H         0.195817        -1.073424        -0.417039
 H        -0.915339         0.063339         0.388766
 H         1.243568        -1.114037         2.718964
