19
Iteration:  2782charge 0 multiplicity 1
 C         2.739740        -1.719417        -0.518607
 C         2.386946        -0.629976         0.411872
 O         3.397923        -0.851458         1.571069
 C         3.485770         0.371984         0.895441
 C         2.703353         1.519244         1.563055
 C         1.398737         1.302983         1.573342
 C         1.084117         0.057191         0.913862
 C         0.050545        -0.163961        -0.194154
 O         0.591044        -0.852317         1.934453
 H         2.968998        -2.710858         0.084672
 H         2.017564        -1.775251        -1.323899
 H         3.637577        -1.255313        -0.900205
 H         4.420541         0.651570         0.494951
 H         3.154220         2.246919         2.235421
 H         0.522230         1.897350         1.944081
 H        -0.052381         0.645665        -0.983773
 H         0.510452        -0.933335        -0.831506
 H        -0.914470        -0.347483         0.228342
 H         1.279379        -0.879510         2.717710
