19
Iteration:   368charge 0 multiplicity 1
 C         2.504208        -1.745514        -0.411816
 C         2.511585        -0.720142         0.624498
 O         3.424333        -0.746324         1.738428
 C         3.512826         0.331692         0.733817
 C         2.693598         1.456445         1.219752
 C         1.443885         1.194901         1.640417
 C         1.045748        -0.085792         1.034663
 C         0.328055         0.265077        -0.254045
 O         0.429300        -1.006031         1.869583
 H         1.866361        -2.626652        -0.115498
 H         2.231880        -1.401710        -1.415513
 H         3.592173        -2.120402        -0.405753
 H         4.458063         0.501169         0.242795
 H         3.155475         2.415732         1.381814
 H         0.774043         1.889889         2.103327
 H         0.405386        -0.442830        -1.131792
 H        -0.731149         0.488895         0.051784
 H         0.783195         1.205051        -0.641483
 H         0.884532        -1.105149         2.654730
