19
Iteration:   346charge 0 multiplicity 1
 C         2.711188        -1.930683        -0.394668
 C         2.498652        -0.728060         0.560602
 O         3.361096        -0.704181         1.735400
 C         3.475360         0.380370         0.763150
 C         2.913531         1.639449         1.349748
 C         1.627420         1.225269         1.597672
 C         1.082731        -0.094140         0.954047
 C         0.038947         0.257407        -0.142409
 O         0.299870        -1.001931         1.741665
 H         2.276574        -2.906777        -0.001927
 H         2.163504        -1.689934        -1.330992
 H         3.831603        -2.087816        -0.589050
 H         4.320275         0.308631         0.125349
 H         3.388292         2.542715         1.664439
 H         0.827614         1.652517         2.157899
 H        -0.064049        -0.568217        -0.921719
 H        -0.830674         0.355896         0.563431
 H         0.278400         1.171871        -0.750272
 H         0.617449        -1.339850         2.683986
