19
Iteration:  4091charge 0 multiplicity 1
 C         2.660870        -1.743209        -0.486260
 C         2.508514        -0.572462         0.453836
 O         3.425592        -0.589283         1.569985
 C         3.457176         0.515920         0.747233
 C         2.729697         1.641584         1.332737
 C         1.393329         1.269115         1.547175
 C         1.049066        -0.165889         1.040984
 C         0.014540        -0.167723        -0.102006
 O         0.634959        -1.149165         2.014010
 H         1.541163        -2.018955        -0.573901
 H         3.051867        -1.587523        -1.458291
 H         3.127981        -2.527942         0.126364
 H         4.349841         0.692949         0.198752
 H         3.276911         2.574063         1.658543
 H         0.758864         1.889166         2.176895
 H         0.230539         0.814220        -0.623780
 H         0.111439        -1.015602        -0.825087
 H        -1.003768        -0.119363         0.374792
 H         1.392174        -1.079058         2.689897
