19
Iteration:  3127
 C         2.738934        -1.820683        -0.576137
 C         2.513192        -0.646884         0.415480
 O         3.384192        -0.568051         1.791358
 C         3.433709         0.475141         0.789330
 C         2.717289         1.608560         1.328748
 C         1.473892         1.212532         1.616184
 C         1.077012        -0.083457         0.974755
 C        -0.059477         0.060663        -0.050766
 O         0.602908        -1.187775         1.850254
 H         2.872124        -1.292181        -1.617179
 H         3.608139        -2.363658        -0.304235
 H         1.889298        -2.482836        -0.540932
 H         4.346749         0.503231         0.170683
 H         3.296709         2.527610         1.539451
 H         0.790608         1.791564         2.191289
 H         0.246918         0.536944        -0.985785
 H        -0.374309        -0.944436        -0.230787
 H        -0.840712         0.613610         0.363525
 H         1.197926        -1.332095         2.673807
