19
Iteration:  1206
 C         2.418993        -1.676383        -0.433256
 C         2.530014        -0.554496         0.539082
 O         3.430697        -0.833920         1.704121
 C         3.545273         0.392785         0.912645
 C         2.705629         1.560315         1.512425
 C         1.418296         1.310120         1.562452
 C         1.099645        -0.085585         0.954436
 C         0.194984         0.077027        -0.241385
 O         0.552278        -1.111910         1.757048
 H         1.776643        -2.485004        -0.001892
 H         2.024533        -1.440106        -1.469351
 H         3.429815        -2.124375        -0.680434
 H         4.511479         0.582076         0.408072
 H         3.305728         2.444933         1.860771
 H         0.649666         2.055425         1.725139
 H         0.756159         0.046865        -1.243012
 H        -0.460530        -0.906856        -0.332572
 H        -0.514984         1.076693        -0.090921
 H         1.402532        -1.272525         2.268538
