19
Iteration:  3707charge 0 multiplicity 1
 C         2.642170        -1.776507        -0.575235
 C         2.529005        -0.619318         0.410593
 O         3.435329        -0.693574         1.601704
 C         3.406320         0.537022         0.825588
 C         2.623864         1.613897         1.459126
 C         1.376434         1.252984         1.523421
 C         1.139551        -0.190819         0.937529
 C        -0.044645        -0.133803        -0.005217
 O         0.772095        -0.964003         1.938843
 H         2.687581        -2.578025         0.054125
 H         1.720803        -1.892919        -1.144715
 H         3.352783        -1.869764        -1.382335
 H         4.390474         0.916383         0.468348
 H         3.153833         2.441947         2.008491
 H         0.601391         1.865952         1.994760
 H         0.056525         0.413575        -0.920724
 H        -0.474737        -1.092475        -0.227022
 H        -0.780350         0.433271         0.529930
 H         1.471485        -1.180975         2.551239
