19
Iteration:  3983
 C         2.727466        -1.675934        -0.637274
 C         2.551746        -0.612242         0.404397
 O         3.373197        -0.688179         1.694993
 C         3.417733         0.470608         0.882709
 C         2.663988         1.594805         1.369533
 C         1.370024         1.258993         1.451687
 C         1.171400        -0.191108         0.999572
 C        -0.045040        -0.089928        -0.077928
 O         0.674931        -1.034762         2.076046
 H         3.056380        -2.710547        -0.272002
 H         1.849472        -1.842143        -1.194389
 H         3.296132        -1.339902        -1.486691
 H         4.305163         0.711043         0.379894
 H         3.134475         2.568809         1.489140
 H         0.504365         1.821495         1.696099
 H         0.192327        -0.222865        -1.086742
 H        -0.734556        -0.964510         0.108363
 H        -0.590907         0.825346         0.157219
 H         1.495560        -1.207058         2.664499
