19
Iteration:  4144charge 0 multiplicity 1
 C         2.716596        -1.689383        -0.639976
 C         2.530440        -0.639766         0.473605
 O         3.447140        -0.609867         1.661530
 C         3.520963         0.485581         0.739108
 C         2.601643         1.650575         1.274514
 C         1.403980         1.177504         1.450115
 C         1.061239        -0.232782         1.019134
 C        -0.088282         0.004329        -0.073230
 O         0.656709        -1.162762         2.165207
 H         2.044736        -1.585682        -1.426871
 H         3.726471        -1.489701        -0.866887
 H         2.768682        -2.541029         0.014556
 H         4.416382         0.623092         0.179045
 H         3.044589         2.594490         1.687918
 H         0.671735         1.851419         1.927560
 H         0.285691         0.182794        -1.082660
 H        -0.620811        -0.911748        -0.259344
 H        -0.771782         0.721367         0.356514
 H         1.377791        -1.026916         2.822007
