19
Iteration:  2750
 C         2.717804        -1.666154        -0.739278
 C         2.556312        -0.615514         0.453550
 O         3.260404        -0.833702         1.787101
 C         3.510190         0.403389         0.968326
 C         2.756760         1.563584         1.568131
 C         1.449025         1.275860         1.406303
 C         1.099328        -0.090023         0.831949
 C        -0.051789        -0.108548        -0.265552
 O         0.626356        -0.885151         2.115436
 H         3.354635        -2.599498        -0.376611
 H         1.723040        -2.000351        -1.050552
 H         3.206821        -1.102467        -1.542186
 H         4.506895         0.499282         0.651407
 H         2.976677         2.512182         2.026144
 H         0.519883         1.858048         1.640433
 H         0.124922         0.802856        -0.886101
 H         0.064102        -1.052695        -0.847135
 H        -0.973847        -0.254661         0.270510
 H         1.418087        -1.176111         2.499139
