19
Iteration:   407charge 0 multiplicity 1
 C         2.453697        -1.864182        -0.514752
 C         2.486213        -0.609715         0.550327
 O         3.446588        -0.813117         1.635356
 C         3.479083         0.485099         0.810727
 C         2.744864         1.540316         1.527274
 C         1.395361         1.352604         1.554985
 C         1.135141        -0.099461         1.005220
 C         0.316668        -0.013083        -0.286709
 O         0.438174        -0.912179         1.928948
 H         1.452555        -2.250174        -0.542784
 H         2.648917        -1.500719        -1.535270
 H         3.124144        -2.617982        -0.325872
 H         4.450453         0.518454         0.391869
 H         3.255978         2.305010         2.058324
 H         0.657658         1.992190         2.035491
 H        -0.230965        -0.897366        -0.479079
 H        -0.331436         0.808536        -0.319768
 H         1.029568         0.202741        -1.094532
 H         1.213083        -1.317186         2.517387
