19
Iteration:  1911charge 0 multiplicity 1
 C         2.754442        -1.459275        -0.820116
 C         2.527833        -0.678442         0.564898
 O         3.169273        -0.938202         1.880275
 C         3.575731         0.289444         1.097052
 C         2.830233         1.577130         1.370079
 C         1.496880         1.292917         1.356884
 C         1.142364        -0.104252         0.890676
 C        -0.013391        -0.046015        -0.237655
 O         0.503756        -0.946889         2.056315
 H         2.106305        -2.376083        -0.837474
 H         2.482598        -0.743618        -1.595295
 H         3.899351        -1.797412        -0.994265
 H         4.632679         0.220642         0.711464
 H         3.274186         2.533526         1.704881
 H         0.645149         1.920923         1.686332
 H         0.436123         0.212935        -1.201384
 H        -0.516829        -0.987231        -0.367411
 H        -0.914817         0.708638        -0.143964
 H         0.974777        -0.864787         2.900818
