19
Iteration:  1388
 C         2.800199        -1.652662        -0.591321
 C         2.519601        -0.788163         0.569159
 O         3.472932        -0.781868         1.720737
 C         3.556493         0.354583         0.793392
 C         2.773719         1.492573         1.400401
 C         1.425943         1.174274         1.607831
 C         1.033266        -0.163829         0.987079
 C         0.101930         0.199776        -0.230114
 O         0.243191        -0.891322         1.950107
 H         2.364142        -2.657636        -0.439924
 H         2.551670        -1.072707        -1.508144
 H         3.869871        -1.794719        -0.541430
 H         4.459883         0.459710         0.146475
 H         3.185403         2.392063         1.842663
 H         0.700467         1.841973         1.963405
 H         0.661112         0.492216        -1.125691
 H        -0.438615        -0.743026        -0.624266
 H        -0.688438         0.872560         0.014661
 H         0.896645        -1.288406         2.605329
