19
Iteration:  2291
 C         2.712443        -1.912784        -0.442307
 C         2.606861        -0.693690         0.516537
 O         3.338914        -0.690493         1.735107
 C         3.480261         0.417676         0.798613
 C         2.754918         1.574232         1.452782
 C         1.479674         1.208206         1.611286
 C         1.141645        -0.154774         0.913790
 C         0.089719         0.241462        -0.152156
 O         0.387683        -1.012772         1.732698
 H         2.547236        -2.794326         0.171438
 H         1.966978        -1.937374        -1.249804
 H         3.785597        -1.921709        -0.803673
 H         4.323161         0.678338         0.190822
 H         3.184023         2.426378         2.018090
 H         0.625116         1.610840         2.171253
 H         0.454548         1.117749        -0.638090
 H        -0.038277        -0.291886        -1.121964
 H        -0.929865         0.306719         0.310319
 H         0.829462        -0.975285         2.575796
