19
Iteration:  1258charge 0 multiplicity 1
 C         2.991385        -1.638021        -0.663666
 C         2.423134        -0.743407         0.544590
 O         3.354426        -0.772812         1.629998
 C         3.400904         0.303137         0.783022
 C         2.781933         1.391425         1.545236
 C         1.422795         1.192064         1.587885
 C         1.085527        -0.136896         0.988547
 C         0.085740         0.067795        -0.213477
 O         0.355665        -0.792185         2.008958
 H         2.526847        -2.660345        -0.769317
 H         2.728238        -1.114576        -1.666866
 H         4.038692        -1.803481        -0.632705
 H         4.364318         0.581736         0.281931
 H         3.365835         2.348623         1.641039
 H         0.700354         1.671241         2.244653
 H         0.727433         0.278905        -1.072815
 H        -0.638209        -0.789109        -0.191287
 H        -0.631973         0.860459        -0.180819
 H         0.711474        -0.438535         2.759932
