19
Iteration:   501
 C         2.706124        -1.483665        -0.671085
 C         2.510701        -0.687033         0.569891
 O         3.156484        -1.065056         1.865202
 C         3.559973         0.286601         0.999315
 C         2.801398         1.450651         1.372586
 C         1.428614         1.363690         1.287457
 C         1.023521        -0.064703         0.929320
 C         0.084643        -0.058025        -0.291546
 O         0.615762        -0.785685         2.074802
 H         2.240542        -2.499851        -0.673629
 H         2.103711        -0.912439        -1.449475
 H         3.768628        -1.479741        -1.056650
 H         4.650590         0.391400         0.905904
 H         3.328615         2.314009         1.704442
 H         0.723671         2.065955         1.718109
 H         0.017178        -1.113149        -0.678676
 H        -0.973856         0.278646         0.034369
 H         0.444101         0.727460        -1.031335
 H         1.514128        -0.727486         2.644856
