19
Iteration:  2116charge 0 multiplicity 1
 C         2.586193        -1.595116        -0.650227
 C         2.526592        -0.600764         0.494004
 O         3.306773        -0.952469         1.715851
 C         3.475295         0.283304         1.034569
 C         2.713105         1.554746         1.622236
 C         1.425223         1.443843         1.404557
 C         1.113073        -0.051200         0.901188
 C         0.186304        -0.197364        -0.263698
 O         0.593294        -0.832527         1.961408
 H         2.135540        -2.547009        -0.371862
 H         2.047804        -1.069905        -1.445902
 H         3.640553        -1.767761        -1.116781
 H         4.454115         0.327106         0.553042
 H         3.145258         2.361273         2.194559
 H         0.590620         2.114437         1.588901
 H         0.247984         0.567947        -1.076237
 H         0.113844        -1.219515        -0.656965
 H        -0.881973         0.103657         0.153556
 H         1.357418        -1.225684         2.335044
