19
Iteration:  3364charge 0 multiplicity 1
 C         2.898152        -1.663553        -0.649946
 C         2.498151        -0.673610         0.485561
 O         3.367543        -0.789409         1.531257
 C         3.417665         0.460817         0.771169
 C         2.658161         1.570130         1.325541
 C         1.367989         1.280753         1.511829
 C         1.053696        -0.122441         1.072335
 C        -0.003103        -0.104209         0.066781
 O         0.591113        -0.974804         2.029137
 H         3.861586        -1.182339        -1.168186
 H         3.148829        -2.611328        -0.181536
 H         2.206821        -1.859934        -1.531138
 H         4.335379         0.533910         0.226370
 H         3.066750         2.474531         1.732024
 H         0.676707         1.772645         2.228355
 H         0.291997         0.543270        -0.853910
 H        -0.454103        -1.041638        -0.309224
 H        -0.709963         0.551543         0.570783
 H         1.106716        -0.798783         2.814566
