19
Iteration:  3378
 C         2.842815        -1.676694        -0.543766
 C         2.443500        -0.579087         0.400558
 O         3.348928        -0.790651         1.559371
 C         3.453955         0.448634         0.768767
 C         2.684446         1.610669         1.377845
 C         1.420300         1.230550         1.623512
 C         1.065123        -0.110927         0.976506
 C        -0.106581        -0.019431        -0.029504
 O         0.681108        -1.065545         2.025239
 H         3.580695        -1.279280        -1.251070
 H         3.343900        -2.450222         0.002409
 H         2.005404        -2.059990        -1.012143
 H         4.436854         0.679331         0.269427
 H         3.169477         2.565847         1.376668
 H         0.670380         1.917224         2.005818
 H         0.287903         0.306935        -0.995049
 H        -0.307858        -1.097593        -0.122159
 H        -1.078976         0.440611         0.169669
 H         1.328408        -1.037789         2.811584
