19
Iteration:   298charge 0 multiplicity 1
 C         2.642559        -1.865021        -0.469191
 C         2.452234        -0.662503         0.504208
 O         3.314866        -0.866932         1.698282
 C         3.473647         0.358950         0.898399
 C         2.829325         1.511664         1.515642
 C         1.464366         1.268199         1.470611
 C         1.072405        -0.109002         0.814110
 C        -0.011465         0.225543        -0.243189
 O         0.632047        -0.866521         1.935119
 H         2.501346        -2.773484         0.097566
 H         1.963232        -1.887766        -1.346265
 H         3.647939        -1.815731        -0.793787
 H         4.494543         0.375688         0.444621
 H         3.196077         2.378819         2.078962
 H         0.695520         1.918101         1.968759
 H        -0.501149        -0.662377        -0.578655
 H        -0.655845         0.998348         0.118118
 H         0.560970         0.448670        -1.128945
 H         1.428865        -0.847668         2.613235
