19
Iteration:  4444charge 0 multiplicity 1
 C         2.541937        -1.777598        -0.603912
 C         2.492727        -0.654727         0.436236
 O         3.380866        -0.642769         1.626839
 C         3.444316         0.567386         0.757773
 C         2.676587         1.690085         1.352103
 C         1.396502         1.228161         1.454680
 C         1.131059        -0.155834         0.988369
 C         0.041066        -0.155169        -0.023614
 O         0.774827        -1.065632         2.135779
 H         2.839450        -1.345541        -1.580542
 H         3.259995        -2.557772        -0.287590
 H         1.486363        -2.091223        -0.615694
 H         4.290568         0.653764         0.111236
 H         2.987648         2.682045         1.759019
 H         0.700383         1.795497         2.109834
 H         0.176852         0.602314        -0.877442
 H        -0.023011        -1.086976        -0.755409
 H        -1.009483        -0.095517         0.485357
 H         1.678547        -0.994138         2.610395
