19
Iteration:  2100
 C         2.650841        -1.619764        -0.583198
 C         2.550739        -0.666519         0.591430
 O         3.390414        -0.971576         1.655315
 C         3.471440         0.456976         0.918621
 C         2.741170         1.498722         1.657417
 C         1.430972         1.317403         1.408956
 C         1.084878        -0.051442         0.872326
 C         0.066182        -0.064869        -0.249875
 O         0.495022        -0.853925         1.916032
 H         2.194412        -2.621401        -0.262377
 H         2.345497        -1.275491        -1.628356
 H         3.665168        -1.879657        -0.691716
 H         4.437243         0.786750         0.491866
 H         3.350024         2.320902         2.088205
 H         0.643880         1.985040         1.784265
 H         0.646318         0.346445        -1.082083
 H        -0.165297        -1.146745        -0.364048
 H        -0.840962         0.390007         0.040285
 H         1.159396        -1.012312         2.592053
