19
Iteration:  3651charge 0 multiplicity 1
 C         2.691756        -1.587283        -0.726081
 C         2.466829        -0.672420         0.497845
 O         3.438123        -0.761356         1.664227
 C         3.431176         0.431824         0.719219
 C         2.653996         1.624944         1.367370
 C         1.365077         1.268889         1.544286
 C         1.118930        -0.129523         1.047723
 C         0.093041        -0.169470        -0.072138
 O         0.614619        -0.969396         2.091169
 H         3.616496        -2.039920        -0.476610
 H         1.820251        -2.299131        -0.699601
 H         2.771782        -0.894607        -1.525912
 H         4.343714         0.544792         0.188346
 H         2.984499         2.615523         1.609363
 H         0.562627         1.793462         2.101456
 H         0.376688         0.087663        -1.042313
 H        -0.214774        -1.227670        -0.098085
 H        -0.852823         0.311261         0.290184
 H         1.461796        -1.267937         2.529312
