19
Iteration:   891
 C         2.737023        -1.898750        -0.495182
 C         2.463769        -0.675829         0.466490
 O         3.196468        -0.724002         1.724569
 C         3.481570         0.380351         0.909604
 C         2.839882         1.598606         1.530087
 C         1.557183         1.316764         1.535152
 C         1.127976        -0.114413         0.888823
 C         0.054057         0.191883        -0.157285
 O         0.497814        -0.998913         1.795064
 H         2.145353        -2.749112        -0.158613
 H         2.404246        -1.638460        -1.541790
 H         3.755725        -2.104371        -0.557896
 H         4.428904         0.382447         0.357656
 H         3.447200         2.419642         1.981842
 H         0.616259         1.743163         1.921606
 H        -0.360420         1.079223         0.164645
 H         0.326846         0.252931        -1.161337
 H        -0.670916        -0.577856        -0.124593
 H         1.216121        -1.685727         2.168502
