19
Iteration:  1545
 C         2.659805        -1.413356        -0.756564
 C         2.479047        -0.775770         0.642243
 O         3.301304        -0.919769         1.844617
 C         3.435710         0.232266         1.032212
 C         2.793477         1.450032         1.381955
 C         1.502958         1.254641         1.373317
 C         1.081983        -0.111329         0.945811
 C         0.175472        -0.057793        -0.266092
 O         0.458895        -0.738461         2.029296
 H         2.149511        -2.399999        -1.054327
 H         2.413003        -0.694951        -1.599345
 H         3.835598        -1.584914        -0.859205
 H         4.404194         0.256978         0.468934
 H         3.219203         2.357412         1.706010
 H         0.843175         1.957838         1.797851
 H         0.758764         0.676782        -0.931912
 H         0.127701        -0.974280        -0.861782
 H        -0.845847         0.461241        -0.048632
 H         0.942644        -1.340404         2.679242
