19
Iteration:  1762charge 0 multiplicity 1
 C         2.559418        -1.819591        -0.424765
 C         2.496903        -0.688914         0.609440
 O         3.366194        -0.784316         1.767374
 C         3.428178         0.429084         0.836565
 C         2.718310         1.613212         1.402001
 C         1.478226         1.167516         1.598017
 C         1.120287        -0.074062         0.943988
 C         0.274657         0.272291        -0.255890
 O         0.503373        -1.113306         1.741240
 H         2.205534        -2.800256        -0.012534
 H         1.835781        -1.381819        -1.181626
 H         3.537706        -1.960321        -1.023824
 H         4.348876         0.486848         0.250950
 H         3.120283         2.604592         1.799436
 H         0.681592         1.704220         2.154176
 H         0.876394         0.669425        -1.133761
 H        -0.255229        -0.653158        -0.626801
 H        -0.453268         1.076105        -0.022986
 H         0.839500        -1.053195         2.644562
