19
Iteration:   855
 C         2.633559        -1.580836        -0.526772
 C         2.444150        -0.714207         0.665245
 O         3.378195        -0.926713         1.729815
 C         3.544961         0.281625         0.973244
 C         2.777501         1.547899         1.315709
 C         1.459793         1.251291         1.539788
 C         1.091064        -0.120968         0.941035
 C         0.142823         0.125629        -0.308683
 O         0.458070        -0.930481         1.926318
 H         2.165870        -2.606121        -0.505098
 H         2.268027        -1.024645        -1.384382
 H         3.778864        -1.794557        -0.705064
 H         4.347073         0.363010         0.263979
 H         3.266301         2.499106         1.273742
 H         0.751698         2.001829         1.803304
 H        -0.941123         0.213969        -0.003087
 H         0.445160         1.070245        -0.841075
 H         0.169539        -0.768187        -0.955864
 H         0.801418        -0.603862         2.867769
