19
Iteration:  4572
 C         2.587821        -1.708828        -0.585522
 C         2.418033        -0.626568         0.513541
 O         3.402254        -0.740939         1.583363
 C         3.461744         0.442819         0.833146
 C         2.714872         1.655749         1.402884
 C         1.363034         1.364305         1.496144
 C         1.108252        -0.124533         0.966654
 C         0.063767        -0.238785        -0.094195
 O         0.737112        -0.989913         2.062662
 H         2.267410        -2.646497        -0.092286
 H         2.071048        -1.420870        -1.528811
 H         3.663642        -1.764397        -0.844860
 H         4.363370         0.515245         0.282749
 H         3.285445         2.580345         1.548254
 H         0.610355         2.118384         1.803257
 H        -0.104313         0.591045        -0.762010
 H        -0.123287        -1.166999        -0.569205
 H        -0.918602        -0.078663         0.352733
 H         1.610875        -1.069191         2.582190
