19
Iteration:  4590charge 0 multiplicity 1
 C         2.579718        -1.724264        -0.563393
 C         2.616458        -0.624406         0.429682
 O         3.475559        -0.756251         1.642945
 C         3.468134         0.529644         0.755988
 C         2.686471         1.629725         1.347111
 C         1.384873         1.230263         1.479824
 C         1.146212        -0.118234         1.027626
 C        -0.019045        -0.156203        -0.069386
 O         0.576556        -0.971150         2.045900
 H         2.599112        -2.620318         0.040926
 H         1.650414        -1.649747        -1.097267
 H         3.372799        -1.661171        -1.286166
 H         4.430988         0.731475         0.273866
 H         3.063525         2.578637         1.770881
 H         0.672090         1.840485         2.083421
 H         0.301053         0.643132        -0.821057
 H         0.127834        -1.115990        -0.614883
 H        -1.071738        -0.266915         0.422789
 H         1.233446        -0.904149         2.811715
