19
Iteration:  1754charge 0 multiplicity 1
 C         2.547133        -1.823066        -0.382530
 C         2.534518        -0.679431         0.561403
 O         3.438164        -0.800899         1.719745
 C         3.392096         0.437844         0.822015
 C         2.683108         1.570726         1.443298
 C         1.427157         1.200962         1.674662
 C         1.184966        -0.067125         0.914874
 C         0.238247         0.308901        -0.326289
 O         0.477513        -1.130881         1.776422
 H         2.268612        -2.792495         0.129534
 H         1.862012        -1.650891        -1.302659
 H         3.542365        -1.961568        -0.626362
 H         4.308050         0.588323         0.294395
 H         3.351360         2.353088         1.739245
 H         0.612101         1.825229         2.099768
 H         0.921764         0.622827        -1.141719
 H        -0.365672        -0.586042        -0.686235
 H        -0.421546         1.114785        -0.069234
 H         0.745488        -0.865779         2.631344
