19
Iteration:   842charge 0 multiplicity 1
 C         2.593165        -1.516869        -0.581580
 C         2.456535        -0.751703         0.654432
 O         3.486345        -0.940975         1.751000
 C         3.408076         0.271563         0.879153
 C         2.813721         1.474701         1.429386
 C         1.464238         1.349743         1.424786
 C         1.073922        -0.067639         0.981697
 C         0.227309         0.007951        -0.332929
 O         0.387607        -0.904283         2.010610
 H         2.008047        -2.481161        -0.579244
 H         2.329843        -0.963213        -1.489256
 H         3.755681        -1.729033        -0.630924
 H         4.334837         0.336236         0.263077
 H         3.297221         2.403803         1.765005
 H         0.731440         2.159168         1.704758
 H        -0.879164        -0.209151        -0.000959
 H         0.275406         1.106467        -0.707860
 H         0.538742        -0.602781        -1.244648
 H         0.740400        -0.588694         2.783330
