19
Iteration:   892charge 0 multiplicity 1
 C         2.736278        -1.904389        -0.487810
 C         2.460694        -0.673396         0.473245
 O         3.203423        -0.723388         1.716582
 C         3.476782         0.373498         0.906481
 C         2.843346         1.598336         1.540675
 C         1.559365         1.315052         1.537353
 C         1.121163        -0.105958         0.891533
 C         0.044968         0.192784        -0.165143
 O         0.508302        -0.999275         1.789837
 H         2.158014        -2.740654        -0.136149
 H         2.420695        -1.624860        -1.530898
 H         3.741998        -2.095252        -0.537939
 H         4.449907         0.368283         0.354747
 H         3.436441         2.443000         1.982284
 H         0.587351         1.720681         1.924884
 H        -0.353171         1.099812         0.126379
 H         0.296711         0.236539        -1.172827
 H        -0.697521        -0.571115        -0.125522
 H         1.216824        -1.686574         2.152647
