19
Iteration:  1171
 C         2.541316        -1.798603        -0.470650
 C         2.494463        -0.611166         0.453223
 O         3.226135        -0.722386         1.744815
 C         3.556767         0.426413         0.870185
 C         2.792181         1.572941         1.429448
 C         1.477462         1.189679         1.678623
 C         1.100779        -0.154583         0.869919
 C         0.151832         0.188407        -0.214118
 O         0.612866        -1.084930         1.814605
 H         1.801216        -2.569721        -0.066095
 H         2.121938        -1.415990        -1.488322
 H         3.499419        -2.238201        -0.541308
 H         4.625585         0.409915         0.562672
 H         3.227292         2.483683         1.726838
 H         0.602703         1.796985         1.963924
 H         0.489397         1.132210        -0.763701
 H         0.074427        -0.719921        -0.986831
 H        -0.986412         0.340438         0.151110
 H         1.304210        -0.930291         2.587786
