19
Iteration:  3218
 C         2.790458        -1.597731        -0.673834
 C         2.446438        -0.545453         0.425222
 O         3.481102        -0.734957         1.615196
 C         3.488317         0.427032         0.818164
 C         2.722526         1.664448         1.296350
 C         1.441069         1.251042         1.565690
 C         1.090144        -0.184832         1.084183
 C         0.001855        -0.157774        -0.056332
 O         0.453541        -1.093844         2.073194
 H         3.730400        -1.363453        -1.149190
 H         2.885991        -2.668614        -0.232835
 H         1.934194        -1.797912        -1.403554
 H         4.417276         0.689545         0.251846
 H         3.042963         2.662082         1.500566
 H         0.587818         1.771231         2.047399
 H         0.538789         0.238773        -0.883009
 H        -0.467516        -1.138390        -0.204707
 H        -0.765794         0.622619         0.123177
 H         0.934154        -0.905812         2.922220
