19
Iteration:  1311
 C         2.508347        -1.612341        -0.667954
 C         2.501086        -0.641509         0.539948
 O         3.264946        -0.873310         1.823141
 C         3.534698         0.351927         1.046911
 C         2.773341         1.553151         1.542875
 C         1.498832         1.305833         1.438686
 C         1.184278        -0.034526         0.861533
 C         0.100781        -0.083148        -0.236809
 O         0.593900        -0.929920         1.895679
 H         1.768691        -2.423309        -0.529119
 H         2.041523        -1.010441        -1.507832
 H         3.454164        -1.902606        -0.951182
 H         4.610465         0.419054         0.642115
 H         3.239630         2.504358         1.884292
 H         0.694877         2.028920         1.385557
 H         0.077268         0.705588        -0.994364
 H         0.165263        -1.045355        -0.794144
 H        -0.766096         0.037400         0.296109
 H         1.319111        -1.402745         2.274010
