19
Iteration:  2323
 C         2.876450        -1.767537        -0.366750
 C         2.491056        -0.652208         0.481127
 O         3.392316        -0.800361         1.683253
 C         3.500181         0.360138         0.761242
 C         2.782105         1.462836         1.439877
 C         1.457002         1.206128         1.677069
 C         1.017106        -0.054696         0.950186
 C         0.051598         0.231452        -0.218841
 O         0.314510        -0.954309         1.797805
 H         3.071032        -2.618881         0.258040
 H         2.275542        -2.168623        -1.177684
 H         3.887295        -1.630064        -0.889960
 H         4.262644         0.596369         0.034530
 H         3.214064         2.453213         1.646815
 H         0.721461         1.824060         2.219593
 H         0.586227         1.000268        -0.766523
 H         0.075858        -0.792505        -0.648047
 H        -0.944588         0.604715         0.129358
 H         0.985002        -1.493674         2.305427
