19
Iteration:  1690
 C         2.575205        -1.732744        -0.460548
 C         2.504786        -0.726480         0.647781
 O         3.557112        -0.707858         1.695363
 C         3.477176         0.407950         0.768158
 C         2.753991         1.525484         1.428841
 C         1.510063         1.143813         1.728396
 C         1.071502        -0.088917         0.973738
 C         0.262899         0.100302        -0.291379
 O         0.208406        -0.909657         1.785350
 H         1.950132        -2.657394        -0.362587
 H         2.308152        -1.103663        -1.364929
 H         3.582921        -2.066959        -0.563572
 H         4.271613         0.643794         0.079708
 H         3.278547         2.402610         1.821913
 H         0.720997         1.599257         2.410493
 H         0.868484         0.616489        -1.036425
 H         0.394602        -0.889637        -0.801795
 H        -0.772190         0.353658        -0.278286
 H         0.836479        -1.433082         2.365556
