19
Iteration:  4074charge 0 multiplicity 1
 C         2.593672        -1.816722        -0.450105
 C         2.503124        -0.567107         0.500211
 O         3.535865        -0.634410         1.579396
 C         3.465092         0.561279         0.648253
 C         2.643579         1.593823         1.456612
 C         1.359641         1.118116         1.563788
 C         1.091347        -0.158456         0.939649
 C         0.002482        -0.110827        -0.154436
 O         0.662584        -0.981372         2.063233
 H         1.646701        -2.360059        -0.561299
 H         2.955696        -1.317304        -1.409603
 H         3.495063        -2.309855        -0.093786
 H         4.416833         0.718955         0.036089
 H         3.057886         2.514276         1.843193
 H         0.533854         1.664940         2.070095
 H         0.000124         0.727666        -0.822468
 H         0.054547        -0.820145        -0.990979
 H        -1.003209        -0.224043         0.273098
 H         1.328725        -1.046025         2.823326
