19
Iteration:  1374charge 0 multiplicity 1
 C         2.837514        -1.770008        -0.580686
 C         2.522455        -0.668846         0.527200
 O         3.391841        -0.856524         1.649493
 C         3.444158         0.396013         0.875870
 C         2.731031         1.504775         1.509222
 C         1.469964         1.289825         1.507709
 C         1.079552        -0.065378         0.929782
 C         0.101166         0.119895        -0.216976
 O         0.341423        -0.906614         1.955144
 H         2.213731        -2.663311        -0.516034
 H         2.611180        -1.332385        -1.579242
 H         3.812013        -2.158005        -0.593565
 H         4.478858         0.534378         0.420147
 H         3.299755         2.336476         1.947010
 H         0.743374         1.745756         2.230076
 H         0.615555         0.652689        -1.033588
 H        -0.481177        -0.791550        -0.376289
 H        -0.696378         0.755271         0.162692
 H         0.994736        -1.410294         2.535781
