19
Iteration:  4783charge 0 multiplicity 1
 C         2.800720        -1.545690        -0.690573
 C         2.559503        -0.625046         0.528255
 O         3.329966        -0.965358         1.665332
 C         3.519674         0.387946         0.918202
 C         2.708637         1.598858         1.357922
 C         1.382161         1.422117         1.260920
 C         1.041379        -0.106728         1.023148
 C        -0.076039        -0.260842        -0.064566
 O         0.623614        -0.870920         2.152294
 H         3.877787        -1.408111        -0.944629
 H         2.490332        -2.612882        -0.559450
 H         2.224705        -1.207218        -1.611712
 H         4.470323         0.443322         0.442190
 H         3.149889         2.528381         1.708877
 H         0.519090         2.107574         1.335127
 H         0.146543         0.189101        -1.003193
 H        -0.358806        -1.316621         0.062039
 H        -0.898294         0.344159         0.369101
 H         1.449613        -1.004381         2.625183
