19
Iteration:  3544
 C         2.450949        -1.674925        -0.523535
 C         2.547173        -0.589139         0.543133
 O         3.418708        -0.789132         1.693819
 C         3.442052         0.549730         0.753481
 C         2.663632         1.617926         1.408614
 C         1.375046         1.283123         1.590663
 C         1.158855        -0.126212         0.972083
 C         0.118496        -0.102214        -0.196613
 O         0.717296        -1.097962         1.928351
 H         1.712753        -1.558730        -1.261050
 H         3.388125        -1.826002        -1.115692
 H         2.300731        -2.630162         0.041231
 H         4.377241         0.726286         0.273186
 H         3.055269         2.546608         1.762883
 H         0.534959         1.739527         2.131520
 H         0.498325         0.492100        -1.016334
 H        -0.118118        -1.128273        -0.506185
 H        -0.835815         0.387771         0.094292
 H         1.404943        -0.923918         2.566010
