19
Iteration:  2685charge 0 multiplicity 1
 C         2.779824        -1.623240        -0.686656
 C         2.457406        -0.623284         0.403693
 O         3.354544        -0.769309         1.789788
 C         3.524143         0.316183         0.933097
 C         2.730889         1.533088         1.474468
 C         1.403436         1.282121         1.535835
 C         1.087251        -0.089117         0.935318
 C         0.066097        -0.085692        -0.191692
 O         0.467938        -0.915054         1.977541
 H         3.799551        -1.178559        -1.146073
 H         2.905768        -2.655669        -0.278483
 H         1.979839        -1.560639        -1.455561
 H         4.457760         0.283071         0.409551
 H         3.254441         2.458682         1.755991
 H         0.781917         1.958997         2.165789
 H         0.510859        -0.189303        -1.236425
 H        -0.454310        -1.087423        -0.262274
 H        -0.649606         0.732135        -0.096920
 H         1.219280        -1.196153         2.523207
