19
Iteration:  3041charge 0 multiplicity 1
 C         2.720693        -1.620995        -0.571642
 C         2.480652        -0.516775         0.431403
 O         3.394153        -0.782602         1.566973
 C         3.502292         0.423887         0.774846
 C         2.682473         1.480301         1.658175
 C         1.416070         1.177041         1.502036
 C         1.094768        -0.136091         0.884180
 C        -0.010779        -0.291775        -0.184339
 O         0.582423        -0.694424         2.065398
 H         2.193993        -1.650545        -1.621891
 H         3.751431        -1.475722        -0.728574
 H         2.638524        -2.615397        -0.214908
 H         4.422313         0.461509         0.185652
 H         3.041103         2.049268         2.534194
 H         0.609422         1.593819         2.085669
 H         0.369381         0.207506        -1.108729
 H        -0.193998        -1.329240        -0.439763
 H        -0.857594         0.240280         0.171158
 H         1.325802        -0.890213         2.578676
