19
Iteration:  1239charge 0 multiplicity 1
 C         2.799120        -1.706094        -0.634434
 C         2.561289        -0.698384         0.482877
 O         3.410833        -0.823864         1.675332
 C         3.461150         0.411732         0.800112
 C         2.745888         1.559274         1.518550
 C         1.426853         1.193417         1.624480
 C         1.059395        -0.124629         0.929751
 C         0.139608         0.036145        -0.216798
 O         0.317915        -0.863130         1.963250
 H         2.284551        -2.686372        -0.484026
 H         2.563670        -1.312701        -1.645565
 H         3.934851        -1.916475        -0.529759
 H         4.377175         0.516883         0.218589
 H         3.312730         2.206386         2.252143
 H         0.746584         1.759172         2.213427
 H         0.665036         0.058216        -1.215735
 H        -0.738369        -0.671545         0.017405
 H        -0.505487         1.106561        -0.253513
 H         0.933665        -0.993303         2.652211
