19
Iteration:  3485charge 0 multiplicity 1
 C         2.953735        -1.673631        -0.580723
 C         2.475880        -0.798812         0.529202
 O         3.496412        -0.653362         1.545458
 C         3.383009         0.446962         0.721697
 C         2.659668         1.633702         1.343977
 C         1.478811         1.093562         1.682274
 C         1.079950        -0.210943         0.960540
 C        -0.022172         0.029387        -0.064638
 O         0.376508        -0.858777         2.033808
 H         1.997573        -2.153714        -1.208079
 H         3.823163        -1.265450        -1.166085
 H         3.382323        -2.667692        -0.275479
 H         4.314681         0.669519         0.098559
 H         3.178505         2.570673         1.730774
 H         0.745475         1.339322         2.436673
 H         0.336111         0.389339        -1.087303
 H        -0.355526        -0.976498        -0.417113
 H        -0.871750         0.616535         0.357704
 H         0.932952        -1.428610         2.650952
