19
Iteration:  1956charge 0 multiplicity 1
 C         2.773385        -1.762296        -0.506848
 C         2.472985        -0.638350         0.469941
 O         3.383853        -0.913021         1.651078
 C         3.478728         0.405715         0.853896
 C         2.819400         1.548762         1.607350
 C         1.467854         1.298722         1.526205
 C         0.993927        -0.074775         0.929680
 C         0.061247         0.089908        -0.305031
 O         0.421981        -0.920830         1.945535
 H         2.486588        -2.711312         0.028918
 H         2.468463        -1.626150        -1.547328
 H         3.955352        -1.757141        -0.496474
 H         4.405006         0.664722         0.359924
 H         3.234184         2.381121         2.129172
 H         0.782937         1.974456         2.070308
 H         0.304938         0.972437        -0.911829
 H        -0.041033        -0.840275        -0.909415
 H        -1.020578         0.230845         0.077238
 H         1.273690        -1.228988         2.248923
