19
Iteration:  2101
 C         2.651529        -1.619853        -0.585317
 C         2.541536        -0.669809         0.588893
 O         3.387772        -0.977193         1.660039
 C         3.463968         0.462328         0.926999
 C         2.744163         1.498303         1.659340
 C         1.428295         1.324366         1.401007
 C         1.095111        -0.047111         0.880164
 C         0.068333        -0.073345        -0.243765
 O         0.502532        -0.848904         1.909228
 H         2.164468        -2.624688        -0.285691
 H         2.286967        -1.260676        -1.624957
 H         3.677430        -1.883735        -0.728335
 H         4.446691         0.781270         0.481001
 H         3.328380         2.318621         2.096166
 H         0.656198         2.023100         1.773370
 H         0.660477         0.347263        -1.080399
 H        -0.135530        -1.165143        -0.396975
 H        -0.882879         0.367325         0.024908
 H         1.195385        -1.052397         2.603271
