19
Iteration:  2277
 C         2.628425        -1.817751        -0.381041
 C         2.479311        -0.649134         0.510412
 O         3.424004        -0.759527         1.720429
 C         3.478782         0.433490         0.842400
 C         2.709396         1.515900         1.461165
 C         1.379110         1.197542         1.576434
 C         1.133140        -0.082879         0.921383
 C         0.202555         0.232317        -0.216774
 O         0.474758        -1.048258         1.741190
 H         2.222800        -2.708648         0.082070
 H         2.012331        -1.664652        -1.256977
 H         3.618511        -2.093426        -0.819269
 H         4.499529         0.487015         0.514930
 H         3.161269         2.531145         1.499780
 H         0.677079         1.895035         1.963091
 H         0.395524         1.219298        -0.685143
 H         0.223106        -0.700529        -0.730119
 H        -0.743751         0.320620         0.340479
 H         0.984999        -1.184690         2.629653
