19
Iteration:  3144charge 0 multiplicity 1
 C         2.732646        -1.762686        -0.415051
 C         2.492670        -0.607693         0.473326
 O         3.409187        -0.748687         1.555017
 C         3.426870         0.499378         0.724982
 C         2.620450         1.640174         1.408763
 C         1.387592         1.253902         1.634101
 C         1.129255        -0.163635         0.931206
 C         0.025241         0.020385        -0.063005
 O         0.631958        -1.072294         1.851540
 H         3.175796        -1.645655        -1.342161
 H         3.511107        -2.410276         0.103526
 H         1.820163        -2.426703        -0.477791
 H         4.447193         0.590587         0.286564
 H         3.103072         2.499058         1.841781
 H         0.582711         1.671555         2.267466
 H         0.387438         0.697785        -0.872619
 H        -0.463880        -0.962616        -0.345197
 H        -0.731703         0.645466         0.554507
 H         1.294890        -0.948414         2.630635
