19
Iteration:  2816charge 0 multiplicity 1
 C         2.684400        -1.652067        -0.528177
 C         2.575530        -0.659761         0.558848
 O         3.410743        -0.726147         1.677064
 C         3.521308         0.470857         0.811378
 C         2.712235         1.611737         1.415880
 C         1.427353         1.169861         1.469471
 C         1.125016        -0.176162         0.952138
 C         0.031979         0.003104        -0.147327
 O         0.446677        -1.027351         1.961917
 H         2.016733        -2.583286        -0.565450
 H         2.487700        -1.150568        -1.492288
 H         3.711116        -2.082448        -0.674304
 H         4.532954         0.679018         0.531636
 H         3.187884         2.404072         1.968914
 H         0.610821         1.766196         1.873973
 H         0.489564         0.767625        -0.835175
 H        -0.343453        -0.897637        -0.654049
 H        -0.903537         0.470228         0.188140
 H         1.118273        -1.395964         2.547700
