19
Iteration:  4880charge 0 multiplicity 1
 C         2.794304        -1.696307        -0.568921
 C         2.551902        -0.650997         0.524143
 O         3.448484        -0.766410         1.664942
 C         3.512501         0.443439         0.778258
 C         2.721296         1.596911         1.233410
 C         1.409119         1.306139         1.438248
 C         1.086387        -0.154220         1.059242
 C        -0.073902        -0.031194        -0.054897
 O         0.464454        -1.026640         2.058588
 H         3.770271        -2.102374        -0.316650
 H         2.077902        -2.439107        -0.547044
 H         2.953751        -1.448611        -1.599311
 H         4.427473         0.564604         0.235604
 H         3.059163         2.660187         1.341875
 H         0.658526         1.924570         1.990470
 H         0.073352         0.772550        -0.772287
 H        -0.240821        -1.058077        -0.442955
 H        -0.988180         0.466628         0.384620
 H         1.143504        -1.285855         2.735126
