19
Iteration:  1576
 C         2.673296        -1.534473        -0.711150
 C         2.523633        -0.677581         0.529248
 O         3.297704        -1.070861         1.631997
 C         3.533453         0.324257         1.088002
 C         2.763461         1.466052         1.613315
 C         1.444021         1.310522         1.393116
 C         1.110832         0.005052         0.897795
 C         0.108631        -0.179666        -0.310189
 O         0.449777        -0.669011         2.066555
 H         2.276846        -2.569952        -0.637304
 H         2.469394        -1.054568        -1.650825
 H         3.791812        -1.841452        -0.931868
 H         4.528783         0.529740         0.666506
 H         3.148932         2.318673         2.115930
 H         0.815676         2.130641         1.680347
 H         0.644165         0.344332        -1.136718
 H         0.022937        -1.223574        -0.584570
 H        -0.917454         0.278369        -0.045725
 H         0.924656        -0.514861         2.849922
