19
Iteration:  1441charge 0 multiplicity 1
 C         2.522561        -1.787207        -0.507429
 C         2.477195        -0.620052         0.512420
 O         3.434740        -0.804875         1.657110
 C         3.456687         0.453339         0.862658
 C         2.774776         1.537337         1.525626
 C         1.472585         1.265403         1.650418
 C         1.074802        -0.113026         1.009713
 C         0.350424         0.135146        -0.293066
 O         0.372344        -1.033596         1.831880
 H         2.097748        -2.603287         0.066513
 H         1.917023        -1.549109        -1.409985
 H         3.492432        -2.053697        -0.709692
 H         4.346042         0.674499         0.201220
 H         3.312434         2.461534         1.572035
 H         0.679294         1.826319         2.046495
 H         0.900406         0.776737        -0.965018
 H         0.090405        -0.857291        -0.723176
 H        -0.609055         0.521478        -0.183205
 H         0.870090        -1.102910         2.656378
