19
Iteration:  2241
 C         2.509215        -1.652426        -0.548481
 C         2.490915        -0.610409         0.577206
 O         3.332965        -0.810740         1.730641
 C         3.452630         0.451010         0.828401
 C         2.755070         1.579840         1.506602
 C         1.468856         1.335741         1.551710
 C         1.085899        -0.147855         0.985741
 C         0.314463        -0.009193        -0.313675
 O         0.507619        -1.064916         1.893404
 H         1.554201        -2.252460        -0.494688
 H         2.539853        -1.119708        -1.534278
 H         3.333305        -2.301483        -0.482730
 H         4.502608         0.666334         0.493799
 H         3.164194         2.479900         1.914875
 H         0.716919         1.907781         2.142696
 H         0.792533         0.212427        -1.308944
 H        -0.187698        -1.004698        -0.471136
 H        -0.588941         0.563205        -0.191116
 H         1.357538        -1.369643         2.398840
