19
Iteration:  1367
 C         2.805278        -1.771851        -0.566636
 C         2.475498        -0.654916         0.428349
 O         3.356311        -0.898410         1.661839
 C         3.423443         0.402161         0.904726
 C         2.787787         1.548721         1.570434
 C         1.438901         1.307241         1.531775
 C         1.099636        -0.071275         0.883769
 C         0.095745         0.072216        -0.172353
 O         0.436313        -0.888808         1.913150
 H         2.104236        -2.585306        -0.267847
 H         2.634689        -1.377533        -1.592111
 H         3.804234        -2.235464        -0.466363
 H         4.402532         0.553169         0.439840
 H         3.193633         2.455593         1.996005
 H         0.746386         1.869508         2.089943
 H         0.628635         0.556065        -0.995623
 H        -0.439175        -0.868644        -0.542903
 H        -0.732799         0.678041         0.175078
 H         1.016677        -1.304247         2.498618
