19
Iteration:  3526charge 0 multiplicity 1
 C         2.655707        -1.726430        -0.544214
 C         2.451904        -0.641850         0.563419
 O         3.488311        -0.697480         1.566604
 C         3.433990         0.452209         0.820543
 C         2.681498         1.645724         1.448928
 C         1.396440         1.268028         1.482740
 C         1.128813        -0.148076         1.012579
 C         0.074533        -0.023351        -0.078829
 O         0.578058        -1.129655         1.922480
 H         1.705353        -1.639384        -1.097985
 H         3.493689        -1.361799        -1.106912
 H         2.852588        -2.724504        -0.092606
 H         4.306079         0.605465         0.144189
 H         3.174180         2.557247         1.747283
 H         0.617582         1.967159         1.810622
 H         0.497873         0.413758        -1.044004
 H        -0.370445        -1.012196        -0.179806
 H        -0.626265         0.717435         0.239040
 H         0.978515        -1.076389         2.787700
