19
Iteration:  1796charge 0 multiplicity 1
 C         2.714601        -1.644702        -0.565483
 C         2.472009        -0.609932         0.509644
 O         3.301999        -0.847745         1.829128
 C         3.511805         0.314947         0.979886
 C         2.836292         1.579607         1.343068
 C         1.557872         1.297095         1.538149
 C         1.086113        -0.054640         0.968192
 C         0.119954         0.096910        -0.235007
 O         0.384613        -1.042400         1.876327
 H         2.191435        -2.632830        -0.310387
 H         1.989938        -1.331574        -1.433342
 H         3.695892        -1.786946        -1.002995
 H         4.457219         0.422535         0.481478
 H         3.265035         2.559474         1.525184
 H         0.752251         2.038731         1.745950
 H         0.375305         0.863509        -1.030650
 H         0.105047        -0.989648        -0.631608
 H        -0.901549         0.195119         0.120593
 H         1.057395        -1.714910         2.295361
