19
Iteration:  2696charge 0 multiplicity 1
 C         2.810385        -1.520965        -0.664894
 C         2.510009        -0.636064         0.559411
 O         3.269699        -0.845561         1.742034
 C         3.490980         0.357166         0.930741
 C         2.800205         1.574804         1.383210
 C         1.486284         1.347042         1.484052
 C         1.038423        -0.135561         0.970090
 C         0.021140        -0.131309        -0.173120
 O         0.472263        -0.994662         1.976181
 H         3.894090        -1.403647        -1.158404
 H         2.719068        -2.617123        -0.502373
 H         2.127658        -1.359772        -1.530286
 H         4.493215         0.442529         0.607950
 H         3.267544         2.528465         1.642217
 H         0.697346         2.010141         1.929418
 H         0.682207         0.161643        -1.042734
 H        -0.622402        -1.044914        -0.214899
 H        -0.618480         0.758991        -0.171286
 H         1.151930        -1.165633         2.580856
