19
Iteration:   473charge 0 multiplicity 1
 C         2.941945        -1.631048        -0.643591
 C         2.464398        -0.678212         0.432710
 O         3.143925        -0.966999         1.789181
 C         3.460009         0.260489         1.036941
 C         2.764370         1.550248         1.376169
 C         1.491335         1.343049         1.330019
 C         1.101597        -0.141228         0.943614
 C        -0.011394         0.074137        -0.097157
 O         0.537916        -0.835001         1.995472
 H         2.391087        -2.554960        -0.724118
 H         2.917222        -1.121130        -1.604165
 H         3.963921        -1.795159        -0.451278
 H         4.454659         0.380090         0.643850
 H         3.379412         2.458711         1.441834
 H         0.651311         2.033120         1.409110
 H        -0.734525        -0.687424         0.065130
 H        -0.511799         0.923122         0.258375
 H         0.260901         0.303036        -1.100698
 H         1.320890        -1.309837         2.467929
