19
Iteration:  4387
 C         2.737106        -1.806975        -0.510520
 C         2.530683        -0.636001         0.484211
 O         3.420230        -0.506630         1.604933
 C         3.423244         0.542194         0.610685
 C         2.694870         1.633079         1.262029
 C         1.483663         1.197668         1.634399
 C         1.147441        -0.258744         0.976479
 C        -0.087411        -0.060976         0.069029
 O         0.546766        -1.143615         1.984343
 H         2.757169        -1.371785        -1.560195
 H         3.742289        -2.246069        -0.197829
 H         1.951248        -2.639398        -0.451100
 H         4.317001         0.849198         0.090336
 H         3.039278         2.639274         1.433075
 H         0.733515         1.886116         1.975525
 H         0.312583         0.637566        -0.677702
 H        -0.427640        -1.079631        -0.226100
 H        -0.731897         0.644655         0.686909
 H         1.241414        -1.106964         2.675425
