19
Iteration:  2692
 C         2.808663        -1.551436        -0.670944
 C         2.486821        -0.615649         0.502699
 O         3.307359        -0.810250         1.760498
 C         3.494382         0.324846         0.930318
 C         2.770797         1.562689         1.419412
 C         1.454374         1.337939         1.506123
 C         1.056437        -0.122541         0.946334
 C         0.028143        -0.128346        -0.164507
 O         0.459402        -0.968630         1.975644
 H         3.755822        -1.369435        -1.184598
 H         2.785307        -2.638670        -0.511645
 H         2.149163        -1.479802        -1.519285
 H         4.579870         0.299193         0.590109
 H         3.253779         2.525226         1.637859
 H         0.815740         2.001100         2.046124
 H         0.617019         0.041896        -1.061067
 H        -0.545848        -1.051352        -0.296318
 H        -0.568895         0.786653        -0.210871
 H         1.245441        -1.210511         2.604567
