19
Iteration:  3270
 C         2.765469        -1.624400        -0.627480
 C         2.491285        -0.524940         0.370806
 O         3.337834        -0.770690         1.666628
 C         3.444757         0.469722         0.849028
 C         2.666329         1.577765         1.368493
 C         1.404615         1.209445         1.484027
 C         1.065005        -0.115573         0.892675
 C        -0.151400        -0.138817        -0.067813
 O         0.804315        -0.991090         2.102135
 H         3.621363        -2.249036        -0.246955
 H         1.912426        -2.299997        -0.543478
 H         2.878000        -1.446162        -1.684227
 H         4.463160         0.681122         0.438882
 H         3.025440         2.301197         2.049423
 H         0.681865         1.655759         2.206662
 H         0.071970        -0.038055        -1.137861
 H        -0.559113        -1.115308         0.172404
 H        -0.843087         0.620849         0.292391
 H         1.804680        -1.022059         2.409454
