19
Iteration:  3562
 C         2.499114        -1.678494        -0.498535
 C         2.560259        -0.575059         0.410507
 O         3.321111        -0.671999         1.606482
 C         3.496250         0.500215         0.858006
 C         2.660588         1.605307         1.404376
 C         1.410863         1.180485         1.601740
 C         1.066650        -0.136193         0.964131
 C         0.117668        -0.120565        -0.197601
 O         0.745161        -1.020867         2.042492
 H         2.177174        -1.336548        -1.576728
 H         3.428109        -2.242181        -0.791517
 H         1.786630        -2.433394        -0.190406
 H         4.511206         0.596138         0.435558
 H         3.095638         2.547686         1.811698
 H         0.692293         1.720995         2.203425
 H         0.504882         0.547599        -0.966278
 H        -0.020558        -1.097500        -0.701944
 H        -0.940981         0.128234         0.107291
 H         1.533262        -1.513067         2.275297
