19
Iteration:  3823
 C         2.588809        -1.821669        -0.524663
 C         2.482018        -0.558368         0.474615
 O         3.474014        -0.712975         1.575134
 C         3.432783         0.558121         0.733468
 C         2.679603         1.610660         1.510115
 C         1.330608         1.333949         1.571441
 C         1.122497        -0.066834         0.986156
 C         0.002603        -0.221507        -0.076882
 O         0.730827        -1.054264         1.913463
 H         1.839521        -2.447881         0.051792
 H         2.488809        -1.466975        -1.532787
 H         3.583662        -2.211961        -0.458217
 H         4.264447         0.811754         0.128549
 H         3.277890         2.496758         1.876173
 H         0.459692         1.850208         2.003005
 H         0.439439         0.120175        -1.011465
 H        -0.410571        -1.268984        -0.247565
 H        -0.766057         0.585424         0.171803
 H         1.446409        -1.068942         2.602351
