19
Iteration:  2296charge 0 multiplicity 1
 C         2.765888        -1.907192        -0.429729
 C         2.562737        -0.726453         0.520467
 O         3.329135        -0.687196         1.721139
 C         3.519654         0.443357         0.795135
 C         2.797612         1.626978         1.437727
 C         1.485694         1.201752         1.647259
 C         1.136080        -0.206971         0.903328
 C         0.027114         0.271919        -0.224260
 O         0.357464        -1.011464         1.763490
 H         2.678843        -2.890513         0.133460
 H         2.037985        -2.045528        -1.257290
 H         3.735468        -1.909556        -0.859006
 H         4.431839         0.648079         0.142101
 H         3.185858         2.323371         2.174802
 H         0.704556         1.663609         2.281600
 H         0.420935         1.266028        -0.629260
 H        -0.090470        -0.410693        -1.101043
 H        -0.862177         0.317142         0.385530
 H         0.791415        -1.090407         2.665567
