19
Iteration:  1838charge 0 multiplicity 1
 C         2.800870        -1.651741        -0.716181
 C         2.564915        -0.652138         0.425280
 O         3.267842        -0.902906         1.675079
 C         3.516734         0.288335         1.014724
 C         2.726458         1.437649         1.722482
 C         1.438011         1.243691         1.378624
 C         1.045067        -0.093380         0.808132
 C         0.012316        -0.061226        -0.231974
 O         0.559000        -0.668613         2.067974
 H         2.020760        -2.390651        -0.550540
 H         2.941856        -1.340724        -1.738091
 H         3.762518        -2.108599        -0.514066
 H         4.422010         0.307322         0.433514
 H         3.110599         2.260963         2.313485
 H         0.581122         1.914121         1.637983
 H         0.132735         0.724963        -1.001653
 H         0.006228        -1.055160        -0.725857
 H        -0.977592         0.113562         0.128097
 H         1.076808        -0.282149         2.816731
