19
Iteration:  1618charge 0 multiplicity 1
 C         2.753229        -1.640021        -0.559481
 C         2.542330        -0.608478         0.494656
 O         3.150544        -0.866107         1.719507
 C         3.551108         0.346756         0.971937
 C         2.854069         1.447306         1.646227
 C         1.518683         1.293049         1.401684
 C         1.026850        -0.045696         0.813207
 C        -0.090696        -0.014685        -0.220538
 O         0.620651        -0.815688         1.862935
 H         2.181265        -2.519882        -0.340635
 H         2.523830        -1.282025        -1.512691
 H         3.817699        -2.098032        -0.579916
 H         4.620495         0.246097         0.882317
 H         3.275082         2.185455         2.293992
 H         0.661688         1.772694         1.916831
 H         0.222840         0.150724        -1.232585
 H        -0.406554        -1.026071        -0.279180
 H        -0.961222         0.552621         0.192063
 H         1.415099        -1.269552         2.261893
