19
Iteration:  1940charge 0 multiplicity 1
 C         2.869447        -1.630799        -0.590256
 C         2.478472        -0.704897         0.561792
 O         3.290868        -0.890689         1.682823
 C         3.465602         0.312183         0.947635
 C         2.737711         1.480411         1.479016
 C         1.406095         1.289992         1.468125
 C         1.162214        -0.063902         0.867910
 C         0.054116         0.089849        -0.160743
 O         0.470503        -0.848098         1.928395
 H         2.511793        -2.653459        -0.485585
 H         2.306901        -1.290118        -1.484480
 H         3.922618        -1.747635        -0.693045
 H         4.429384         0.279910         0.389940
 H         3.287771         2.332182         1.952275
 H         0.557754         1.853500         1.840525
 H         0.431094         0.730833        -0.969552
 H        -0.294299        -0.852565        -0.632294
 H        -0.871979         0.401176         0.305534
 H         1.009642        -1.372867         2.614721
