19
Iteration:  2451
 C         2.956319        -1.594939        -0.642644
 C         2.523189        -0.811464         0.511053
 O         3.182899        -0.890548         1.820248
 C         3.435981         0.390549         0.961233
 C         2.775797         1.516715         1.456347
 C         1.437793         1.246635         1.415211
 C         1.152805        -0.126188         0.816532
 C        -0.144856         0.081020        -0.174937
 O         0.585829        -0.851902         1.947351
 H         2.179234        -1.869848        -1.303220
 H         3.562851        -0.961884        -1.256287
 H         3.534360        -2.503005        -0.306117
 H         4.410987         0.333120         0.510787
 H         3.412404         2.339091         1.860938
 H         0.545792         1.852864         1.770016
 H         0.061707         0.958085        -0.733157
 H        -0.427051        -0.758208        -0.751214
 H        -0.820835         0.108411         0.633207
 H         1.150922        -0.919319         2.679649
