19
Iteration:  1826
 C         2.829442        -1.622498        -0.570192
 C         2.474039        -0.647373         0.482695
 O         3.298915        -0.978331         1.702615
 C         3.459684         0.333811         0.933393
 C         2.748287         1.424604         1.566846
 C         1.438576         1.306420         1.386509
 C         1.142978        -0.057302         0.862643
 C         0.019968        -0.000592        -0.230177
 O         0.510977        -0.790317         1.987443
 H         2.160054        -2.463477        -0.567858
 H         2.544482        -1.110707        -1.455149
 H         3.856829        -2.050824        -0.515639
 H         4.443899         0.575614         0.529495
 H         3.275393         2.150609         2.209358
 H         0.664732         2.013315         1.744921
 H         0.123598         0.824972        -0.934446
 H         0.012739        -0.916281        -0.809292
 H        -0.865274        -0.010831         0.397358
 H         1.027146        -0.431246         2.677088
