19
Iteration:  4917
 C         2.544161        -1.781122        -0.451425
 C         2.523835        -0.625286         0.563508
 O         3.398179        -0.603944         1.738459
 C         3.471072         0.448488         0.630545
 C         2.643651         1.590794         1.247907
 C         1.397892         1.215705         1.587683
 C         1.179884        -0.108658         1.026623
 C         0.142276         0.068346        -0.115279
 O         0.608184        -1.133348         1.883835
 H         3.598587        -1.903214        -0.680311
 H         2.304115        -2.730791         0.172852
 H         1.747931        -1.746022        -1.235782
 H         4.416926         0.519550         0.032327
 H         3.110477         2.517633         1.461709
 H         0.860837         1.667180         2.395084
 H         0.594038         0.566848        -0.979522
 H        -0.219149        -0.876407        -0.520131
 H        -0.806112         0.362948         0.284088
 H         1.022076        -1.142691         2.731872
