19
Iteration:  4240
 C         2.764100        -1.590784        -0.658685
 C         2.545171        -0.659663         0.532280
 O         3.396522        -0.800443         1.654730
 C         3.457915         0.419095         0.846037
 C         2.587737         1.643838         1.207469
 C         1.280089         1.282035         1.487770
 C         1.145565        -0.151743         0.991837
 C        -0.111450        -0.174065         0.019470
 O         0.781114        -0.958331         2.060788
 H         2.296819        -1.082944        -1.557898
 H         3.895560        -1.836950        -0.788256
 H         2.239055        -2.595857        -0.359489
 H         4.401055         0.495263         0.387178
 H         2.960620         2.673969         1.409286
 H         0.438063         1.872703         1.903742
 H         0.104264         0.605878        -0.779385
 H        -0.235364        -1.132346        -0.518506
 H        -0.974142         0.004385         0.658655
 H         1.569243        -0.956739         2.582380
