19
Iteration:  2747
 C         2.715841        -1.656196        -0.730840
 C         2.572284        -0.618605         0.469487
 O         3.269482        -0.823650         1.780433
 C         3.496066         0.382447         1.007589
 C         2.735975         1.556656         1.525905
 C         1.435935         1.284426         1.405304
 C         1.111278        -0.120403         0.838325
 C        -0.053038        -0.083878        -0.250890
 O         0.625573        -0.884313         2.097060
 H         3.377365        -2.548743        -0.511842
 H         1.758115        -2.038824        -1.106006
 H         3.141459        -1.082164        -1.517593
 H         4.547767         0.453135         0.680620
 H         3.031039         2.516152         2.003491
 H         0.600282         1.957126         1.620005
 H         0.099711         0.785539        -0.883674
 H         0.047232        -1.063262        -0.740727
 H        -1.034363        -0.226378         0.213366
 H         1.498478        -1.222624         2.531005
