19
Iteration:   671
 C         2.643266        -1.902778        -0.350009
 C         2.490486        -0.693274         0.445403
 O         3.491713        -0.902974         1.550682
 C         3.483437         0.449245         0.846781
 C         2.697992         1.532237         1.540701
 C         1.407435         1.133464         1.697802
 C         1.131104        -0.024558         0.904421
 C         0.165457         0.161469        -0.383197
 O         0.371482        -0.737924         1.900514
 H         2.262498        -2.714671         0.243018
 H         2.253678        -2.023232        -1.295218
 H         3.744762        -2.106109        -0.278567
 H         4.439071         0.802367         0.328813
 H         3.210590         2.432446         1.958457
 H         0.542805         1.533249         2.324146
 H         0.349573        -0.621760        -1.075765
 H        -0.824541         0.167953        -0.048678
 H         0.435465         1.045885        -0.866686
 H         1.101294        -0.994444         2.558301
