19
Iteration:  1044
 C         2.680282        -1.616676        -0.521389
 C         2.562353        -0.541569         0.498405
 O         3.185941        -0.950825         1.705460
 C         3.527534         0.410167         0.973015
 C         2.818602         1.538773         1.617188
 C         1.486887         1.295349         1.410441
 C         1.081921        -0.058905         0.801502
 C        -0.094027        -0.008125        -0.261989
 O         0.672852        -0.996998         1.926987
 H         1.877516        -2.310651        -0.273097
 H         2.568050        -1.253787        -1.572784
 H         3.588048        -2.122310        -0.345411
 H         4.608033         0.432456         0.679979
 H         3.208654         2.485854         1.869134
 H         0.658204         1.816048         1.895537
 H         0.179774        -0.051073        -1.269345
 H        -0.799086        -0.774490        -0.122377
 H        -0.448139         1.007467        -0.105318
 H         1.615215        -1.163908         2.415706
