19
Iteration:  3374charge 0 multiplicity 1
 C         2.871898        -1.672146        -0.545562
 C         2.454154        -0.602113         0.427040
 O         3.344036        -0.798604         1.531118
 C         3.441358         0.460813         0.779258
 C         2.683273         1.574591         1.355960
 C         1.411388         1.240876         1.589246
 C         1.064029        -0.095959         1.022539
 C        -0.094988        -0.037427        -0.003860
 O         0.665453        -1.040701         2.015664
 H         3.680509        -1.219062        -1.270430
 H         3.362347        -2.535216        -0.053238
 H         1.983693        -2.041949        -1.224736
 H         4.375024         0.683446         0.309571
 H         3.092287         2.582567         1.405053
 H         0.653232         1.859415         2.115845
 H         0.409197         0.368660        -0.953599
 H        -0.322878        -1.116147        -0.115759
 H        -1.026287         0.463974         0.293188
 H         1.226876        -0.910698         2.745539
