19
Iteration:  4229
 C         2.649927        -1.581276        -0.613582
 C         2.536177        -0.634005         0.454775
 O         3.457517        -0.739503         1.708241
 C         3.417667         0.451774         0.819563
 C         2.599366         1.607582         1.301203
 C         1.356877         1.258320         1.392633
 C         1.075826        -0.174850         0.982753
 C        -0.010970        -0.233494         0.009792
 O         0.752313        -0.955844         2.087198
 H         2.521776        -1.015729        -1.576723
 H         3.734943        -1.941829        -0.840708
 H         1.910318        -2.462191        -0.762908
 H         4.259004         0.582545         0.200243
 H         3.115281         2.546964         1.608376
 H         0.601421         1.787422         1.996565
 H         0.057618         0.633563        -0.734901
 H         0.055903        -1.191447        -0.512076
 H        -1.003706        -0.120087         0.454406
 H         1.458945        -0.888940         2.778654
