19
Iteration:  2522
 C         2.638378        -1.701835        -0.568622
 C         2.491344        -0.620999         0.513303
 O         3.361358        -0.753980         1.698943
 C         3.476019         0.445730         0.932654
 C         2.759463         1.426276         1.583745
 C         1.436703         1.241578         1.580782
 C         1.118513        -0.034613         0.887304
 C         0.137740        -0.081585        -0.349008
 O         0.502723        -0.848624         1.931928
 H         1.709276        -1.865633        -1.265963
 H         3.297970        -1.401695        -1.410737
 H         2.978070        -2.687598        -0.384908
 H         4.485545         0.465210         0.582888
 H         3.178758         2.105769         2.328525
 H         0.577021         1.745508         1.853743
 H         0.743143        -0.146788        -1.311729
 H        -0.393037        -1.085155        -0.348683
 H        -0.700532         0.642654        -0.246804
 H         1.160364        -1.081825         2.650144
