19
Iteration:  3541
 C         2.445369        -1.673080        -0.501832
 C         2.545331        -0.609940         0.549765
 O         3.427566        -0.788345         1.687043
 C         3.440100         0.558375         0.772076
 C         2.667686         1.615215         1.406676
 C         1.378920         1.292397         1.577814
 C         1.157993        -0.119947         0.969528
 C         0.131007        -0.087471        -0.186222
 O         0.704514        -1.108636         1.920277
 H         1.743528        -1.697996        -1.418044
 H         3.396400        -1.722405        -1.116782
 H         2.432071        -2.680348        -0.082335
 H         4.326234         0.748379         0.141294
 H         3.045104         2.581737         1.807746
 H         0.538182         1.761034         2.070051
 H         0.465988         0.426735        -1.074694
 H        -0.228458        -1.099021        -0.492653
 H        -0.833497         0.396882         0.191993
 H         1.373554        -0.938491         2.702613
