19
Iteration:   557
 C         2.793325        -1.689324        -0.528573
 C         2.502295        -0.585092         0.465709
 O         3.416303        -0.946406         1.644689
 C         3.575501         0.289333         0.916396
 C         2.783755         1.378344         1.600049
 C         1.456536         1.333266         1.540314
 C         0.977687         0.013326         0.840024
 C        -0.021984        -0.073948        -0.301327
 O         0.449742        -0.710540         1.984546
 H         1.877638        -2.362333        -0.464604
 H         2.779287        -1.281918        -1.626096
 H         3.628068        -2.317341        -0.257891
 H         4.484513         0.532126         0.401992
 H         3.312134         2.184203         2.195888
 H         0.576236         1.916486         1.840337
 H        -0.269251        -1.152914        -0.503082
 H        -0.974391         0.409673         0.082641
 H         0.319151         0.313221        -1.318870
 H         1.165326        -0.585128         2.688927
