19
Iteration:  1034charge 0 multiplicity 1
 C         2.740957        -1.670596        -0.557982
 C         2.625143        -0.634407         0.426226
 O         3.188464        -0.910481         1.707602
 C         3.548182         0.388742         0.984213
 C         2.746224         1.581153         1.572713
 C         1.454297         1.227552         1.503421
 C         1.133060        -0.115158         0.819767
 C        -0.117913         0.075295        -0.174584
 O         0.630641        -0.939309         1.855532
 H         1.973756        -2.400930        -0.406381
 H         2.771420        -1.325349        -1.589264
 H         3.699936        -2.174697        -0.420414
 H         4.631453         0.487772         0.693994
 H         3.198973         2.496600         1.849569
 H         0.656692         1.861120         1.875087
 H         0.138251        -0.130964        -1.161316
 H        -0.810738        -0.642212         0.147013
 H        -0.583002         1.031224        -0.080231
 H         1.218311        -0.709856         2.689709
