19
Iteration:  3182
 C         2.535423        -1.738608        -0.604865
 C         2.457151        -0.668216         0.525526
 O         3.624356        -0.636464         1.645038
 C         3.382267         0.477040         0.742478
 C         2.636158         1.594752         1.474799
 C         1.372313         1.274545         1.582158
 C         1.092269        -0.155599         0.979902
 C         0.169981        -0.146519        -0.198208
 O         0.573942        -0.973996         2.043583
 H         3.120571        -1.414969        -1.603063
 H         2.927636        -2.587900        -0.091555
 H         1.561912        -1.895871        -1.022028
 H         4.249752         0.621953         0.082337
 H         3.220988         2.358195         2.027192
 H         0.557497         1.654828         2.235430
 H         0.470497         0.635232        -0.936755
 H        -0.015976        -0.901949        -0.930065
 H        -0.795963         0.125690         0.129760
 H         1.351089        -1.337303         2.572393
