19
Iteration:  1732charge 0 multiplicity 1
 C         2.661433        -1.951462        -0.283514
 C         2.484283        -0.579004         0.462897
 O         3.538402        -0.750431         1.486329
 C         3.514493         0.477747         0.818126
 C         2.707875         1.507892         1.648301
 C         1.424352         1.149160         1.638154
 C         1.020503        -0.038038         0.970698
 C         0.250007         0.233169        -0.304497
 O         0.320869        -1.037155         1.773082
 H         2.061217        -2.763994         0.233914
 H         2.166071        -1.732632        -1.284846
 H         3.620907        -2.305683        -0.298635
 H         4.347808         0.650013         0.163500
 H         3.088099         2.427400         2.094682
 H         0.767913         1.795614         2.273248
 H         1.042329         0.498047        -1.042115
 H        -0.339873        -0.614060        -0.771004
 H        -0.384593         1.084669        -0.161760
 H         0.686027        -0.901109         2.726787
