19
Iteration:  1075
 C         2.562366        -1.616250        -0.692996
 C         2.458251        -0.653031         0.499735
 O         3.316347        -0.919698         1.743813
 C         3.463818         0.357789         0.951737
 C         2.759803         1.521177         1.603678
 C         1.420299         1.373500         1.486256
 C         1.135299        -0.025043         0.927326
 C         0.241263        -0.123885        -0.252502
 O         0.549075        -0.885030         1.948691
 H         1.920356        -2.510509        -0.512716
 H         2.180463        -1.124457        -1.651040
 H         3.567875        -1.911649        -0.822445
 H         4.482636         0.416729         0.530506
 H         3.263840         2.430233         1.764905
 H         0.586714         1.966292         1.874006
 H         0.743179         0.364955        -1.072675
 H        -0.119237        -1.138298        -0.414857
 H        -0.735614         0.456419        -0.099762
 H         1.328395        -0.953951         2.550561
