19
Iteration:  3153
 C         2.715814        -1.785689        -0.405219
 C         2.539022        -0.609047         0.492510
 O         3.433146        -0.775554         1.483065
 C         3.449461         0.591857         0.724740
 C         2.659101         1.615844         1.485838
 C         1.344315         1.150180         1.564559
 C         1.071231        -0.083561         0.951171
 C         0.043817         0.033968        -0.100517
 O         0.619074        -1.061204         1.948588
 H         3.130190        -1.572065        -1.350174
 H         3.343250        -2.464474         0.262184
 H         1.725335        -2.314925        -0.502760
 H         4.472960         0.568370         0.251768
 H         3.050195         2.579811         1.770696
 H         0.509255         1.711953         2.071854
 H         0.421328         0.622635        -0.937937
 H        -0.263091        -0.939306        -0.545099
 H        -0.889309         0.551675         0.332050
 H         1.355120        -1.184369         2.672223
