19
Iteration:  3534charge 0 multiplicity 1
 C         2.504021        -1.709179        -0.519295
 C         2.506992        -0.634722         0.564674
 O         3.454495        -0.753119         1.632209
 C         3.445933         0.523045         0.807307
 C         2.670575         1.651270         1.431353
 C         1.383493         1.266190         1.520131
 C         1.136699        -0.116330         0.971340
 C         0.126785        -0.051933        -0.143226
 O         0.665883        -1.119323         1.921375
 H         1.805416        -1.766344        -1.257991
 H         3.472104        -1.400192        -0.981989
 H         2.682890        -2.765085        -0.224040
 H         4.176350         0.696866         0.060862
 H         3.127323         2.534863         1.802160
 H         0.610681         1.948100         1.935914
 H         0.424340         0.338107        -1.112853
 H        -0.346620        -1.007962        -0.358152
 H        -0.661119         0.512245         0.360800
 H         1.057071        -1.141073         2.827443
