19
Iteration:  4634charge 0 multiplicity 1
 C         2.798156        -1.793091        -0.518876
 C         2.434338        -0.689450         0.585393
 O         3.587827        -0.666089         1.555816
 C         3.328811         0.474049         0.565220
 C         2.694617         1.608146         1.298176
 C         1.397897         1.281214         1.664801
 C         0.995273        -0.148215         1.106421
 C         0.097890         0.063608        -0.084473
 O         0.472134        -1.062187         2.003303
 H         3.436986        -2.514323        -0.051477
 H         2.023649        -2.466387        -0.837554
 H         3.330501        -1.479205        -1.386067
 H         4.118880         0.574576        -0.129831
 H         3.171489         2.525831         1.617462
 H         0.537312         1.831122         2.119378
 H         0.818180         0.171965        -0.893337
 H        -0.376562        -0.910584        -0.229523
 H        -0.657978         0.738313         0.270223
 H         1.232888        -1.236316         2.671184
