19
Iteration:   763charge 0 multiplicity 1
 C         2.682629        -1.671246        -0.570806
 C         2.485246        -0.657336         0.447828
 O         3.126919        -0.883708         1.833104
 C         3.472278         0.268027         1.027050
 C         2.803682         1.518131         1.509356
 C         1.495617         1.412157         1.257216
 C         1.156238        -0.054755         0.882119
 C         0.025016         0.048486        -0.143167
 O         0.655662        -0.952637         1.950432
 H         1.863239        -2.329167        -0.892792
 H         2.992162        -1.130535        -1.539207
 H         3.465294        -2.314220        -0.292449
 H         4.399732         0.193371         0.469033
 H         3.416197         2.356601         1.759632
 H         0.681433         2.083123         1.236279
 H         0.090355        -0.702248        -1.004135
 H        -0.971370         0.043976         0.392254
 H         0.180330         1.052698        -0.662052
 H         1.467589        -1.103975         2.589054
