19
Iteration:  2537
 C         2.736796        -1.719263        -0.515856
 C         2.550130        -0.617459         0.464183
 O         3.368923        -0.802113         1.660272
 C         3.544819         0.389182         0.879109
 C         2.719359         1.503132         1.645546
 C         1.409399         1.184884         1.523701
 C         1.067390        -0.123917         0.849232
 C         0.079791         0.033007        -0.318692
 O         0.438243        -0.866928         1.972236
 H         1.821728        -2.027950        -0.961058
 H         3.510203        -1.543849        -1.268979
 H         3.096639        -2.567366         0.176194
 H         4.430324         0.743480         0.332016
 H         3.131628         2.464433         2.034337
 H         0.646262         1.753021         2.179166
 H         0.572547         0.253399        -1.285560
 H        -0.607104        -0.808638        -0.467043
 H        -0.582764         0.888091        -0.132924
 H         1.330443        -1.111853         2.445122
