19
Iteration:  2936charge 0 multiplicity 1
 C         2.682750        -1.657721        -0.543909
 C         2.441598        -0.553878         0.446740
 O         3.414385        -0.713358         1.576912
 C         3.539050         0.467829         0.811795
 C         2.697527         1.525327         1.483796
 C         1.401422         1.207198         1.541521
 C         1.111656        -0.086816         1.027398
 C         0.137686        -0.109722        -0.116148
 O         0.471388        -1.030627         1.993634
 H         2.712413        -1.315563        -1.560280
 H         3.769311        -1.992488        -0.391454
 H         2.096262        -2.608818        -0.338394
 H         4.326711         0.511878         0.033867
 H         3.094259         2.555953         1.615931
 H         0.573110         1.818435         1.854664
 H         0.209110         0.767827        -0.817997
 H         0.234235        -0.994532        -0.780135
 H        -0.945543        -0.175289         0.184735
 H         1.176143        -1.034871         2.756642
