19
Iteration:  2140
 C         2.659581        -1.483428        -0.734922
 C         2.572474        -0.575467         0.517451
 O         3.071407        -0.965566         1.763380
 C         3.532927         0.352627         1.109157
 C         2.793789         1.501519         1.472113
 C         1.515262         1.269571         1.370858
 C         1.080534        -0.086364         0.886845
 C         0.031067        -0.200732        -0.253036
 O         0.674680        -0.814165         2.034789
 H         2.222333        -2.425606        -0.466470
 H         2.279438        -0.921639        -1.587062
 H         3.719343        -1.689519        -1.090305
 H         4.576613         0.312969         0.995975
 H         3.093362         2.509804         1.834489
 H         0.746344         1.898288         1.762688
 H         0.102930         0.648196        -0.933606
 H         0.197579        -1.135844        -0.813190
 H        -1.079576        -0.160668        -0.036628
 H         1.532187        -0.763374         2.647545
