19
Iteration:  3487charge 0 multiplicity 1
 C         2.958016        -1.691276        -0.574650
 C         2.484089        -0.784200         0.534909
 O         3.497031        -0.664504         1.538938
 C         3.411337         0.459579         0.727876
 C         2.652881         1.630008         1.320022
 C         1.482891         1.092456         1.688575
 C         1.085304        -0.197628         0.979029
 C        -0.035957         0.034413        -0.084100
 O         0.359185        -0.866776         2.038112
 H         2.066196        -2.120967        -1.198193
 H         3.801468        -1.247570        -1.228369
 H         3.358912        -2.655114        -0.329211
 H         4.355233         0.631749         0.135804
 H         3.089084         2.593200         1.801609
 H         0.731664         1.334305         2.433641
 H         0.281961         0.354550        -1.058445
 H        -0.417125        -0.971251        -0.389403
 H        -0.899647         0.639323         0.360417
 H         1.027226        -1.436551         2.635882
