19
Iteration:  2223charge 0 multiplicity 1
 C         2.656296        -1.630992        -0.642319
 C         2.502004        -0.628589         0.509672
 O         3.316163        -0.751264         1.718517
 C         3.480816         0.356922         0.913772
 C         2.706879         1.519091         1.518578
 C         1.433201         1.191599         1.608982
 C         1.152465        -0.086142         0.881903
 C         0.143245        -0.069232        -0.221114
 O         0.522225        -0.890937         1.909866
 H         1.767188        -2.174940        -0.918559
 H         2.846226        -1.179128        -1.613789
 H         3.448691        -2.414646        -0.472373
 H         4.402144         0.402037         0.329683
 H         3.240833         2.389818         1.909526
 H         0.541555         1.694229         1.948019
 H         0.850857        -0.066949        -1.048116
 H        -0.327915        -1.020073        -0.320754
 H        -0.505029         0.798577        -0.031119
 H         0.980325        -0.849032         2.830775
