19
Iteration:  4928charge 0 multiplicity 1
 C         2.531920        -1.849081        -0.345691
 C         2.509168        -0.599031         0.493910
 O         3.450127        -0.695191         1.610295
 C         3.471448         0.514167         0.712002
 C         2.644029         1.703016         1.274437
 C         1.416833         1.264632         1.669431
 C         1.087559        -0.131825         1.019636
 C         0.195329         0.023750        -0.166821
 O         0.577359        -1.151434         1.914756
 H         3.380825        -2.015787        -0.997138
 H         2.331602        -2.707351         0.372997
 H         1.715931        -1.876642        -1.102281
 H         4.430081         0.607860         0.151025
 H         3.061821         2.650101         1.519435
 H         0.642292         1.824583         2.187426
 H         0.649962         0.661666        -0.942592
 H        -0.020788        -0.975638        -0.516119
 H        -0.649636         0.651547         0.008489
 H         1.306265        -1.248311         2.530449
