19
Iteration:  3899charge 0 multiplicity 1
 C         2.688085        -1.527420        -0.634232
 C         2.544940        -0.620490         0.572096
 O         3.475860        -0.866064         1.660454
 C         3.479901         0.459001         0.818384
 C         2.652788         1.631500         1.274929
 C         1.377869         1.309706         1.458038
 C         1.108332        -0.221716         1.027191
 C         0.043892        -0.171882        -0.117377
 O         0.537388        -0.971978         2.113341
 H         3.206702        -2.425749        -0.124080
 H         1.727975        -1.747066        -1.047578
 H         3.468100        -1.181417        -1.273754
 H         4.352858         0.581475         0.210212
 H         2.932845         2.699108         1.247691
 H         0.699624         2.041336         1.777386
 H         0.139437         0.677075        -0.782530
 H        -0.124863        -1.153738        -0.650218
 H        -1.048993        -0.131794         0.255683
 H         1.249731        -1.125884         2.723342
