19
Iteration:  4276charge 0 multiplicity 1
 C         2.881110        -1.626705        -0.596847
 C         2.433679        -0.658164         0.429422
 O         3.322240        -0.655903         1.613906
 C         3.477657         0.441136         0.777311
 C         2.713409         1.620714         1.353214
 C         1.373104         1.317890         1.411586
 C         1.051064        -0.150919         0.997594
 C        -0.127510        -0.187950         0.102714
 O         0.729296        -1.050496         2.032428
 H         2.152347        -1.926428        -1.378435
 H         3.809564        -1.458583        -1.162414
 H         2.878994        -2.597908        -0.020865
 H         4.423865         0.543363         0.129048
 H         3.189756         2.452636         1.837391
 H         0.581271         1.885033         1.892734
 H         0.109127         0.299293        -0.834020
 H        -0.520158        -1.147025        -0.189132
 H        -0.880243         0.528445         0.450293
 H         1.362829        -1.211368         2.729583
