19
Iteration:  3234charge 0 multiplicity 1
 C         2.878404        -1.685752        -0.707041
 C         2.550974        -0.667026         0.416063
 O         3.457410        -0.717751         1.639981
 C         3.438442         0.474140         0.806871
 C         2.682616         1.587591         1.368852
 C         1.364611         1.282303         1.471472
 C         1.018240        -0.152253         1.021326
 C        -0.087691        -0.019251         0.047555
 O         0.561168        -1.088820         2.064116
 H         3.976454        -1.551520        -0.904805
 H         2.719372        -2.635759        -0.260912
 H         2.432094        -1.471729        -1.653755
 H         4.365169         0.577510         0.270260
 H         3.186739         2.533017         1.716590
 H         0.700438         2.021722         1.901189
 H         0.071919        -0.058482        -1.092995
 H        -0.745941        -0.937275         0.100200
 H        -0.826591         0.786506         0.207091
 H         1.237495        -1.066122         2.848997
