19
Iteration:  1090
 C         2.612380        -1.576872        -0.670130
 C         2.575865        -0.673238         0.559732
 O         3.305611        -0.930460         1.660020
 C         3.496857         0.405065         0.948186
 C         2.786412         1.569536         1.477686
 C         1.466449         1.191217         1.538592
 C         1.141376        -0.161706         0.957072
 C         0.189670        -0.065451        -0.308223
 O         0.405041        -0.798704         2.017988
 H         2.040096        -2.452532        -0.453301
 H         2.190586        -1.070511        -1.475481
 H         3.667152        -1.911051        -0.952282
 H         4.443638         0.535423         0.422696
 H         3.197724         2.491428         2.003230
 H         0.684256         1.827923         1.938045
 H         0.451041         0.675050        -1.064405
 H         0.191737        -1.034292        -0.754672
 H        -0.768292         0.113107         0.013308
 H         0.861603        -0.641973         2.941562
