19
Iteration:  3753
 C         2.805849        -1.632595        -0.626329
 C         2.455397        -0.690797         0.481016
 O         3.414339        -0.634155         1.581731
 C         3.422845         0.434475         0.642289
 C         2.693185         1.634128         1.292708
 C         1.427618         1.321949         1.607178
 C         1.078350        -0.253562         1.042556
 C         0.029020        -0.129923         0.042228
 O         0.514652        -1.086879         2.094967
 H         2.320230        -2.548854        -0.652132
 H         2.948766        -1.102919        -1.520371
 H         3.903088        -1.850456        -0.463671
 H         4.354789         0.428871        -0.042981
 H         3.193612         2.584995         1.386840
 H         0.663890         1.851898         2.161778
 H         0.329781         0.750989        -0.612389
 H        -0.247686        -0.895331        -0.647495
 H        -0.829415         0.300046         0.470186
 H         1.107707        -1.057637         2.813168
