19
Iteration:  4381
 C         2.742456        -1.766597        -0.499900
 C         2.519308        -0.611930         0.467775
 O         3.436048        -0.517608         1.612080
 C         3.449920         0.565285         0.601131
 C         2.690874         1.609982         1.244835
 C         1.482346         1.122143         1.649844
 C         1.068311        -0.236825         0.991923
 C        -0.016130        -0.042260         0.043767
 O         0.543393        -1.116352         2.009094
 H         2.601787        -1.449463        -1.515849
 H         3.648816        -2.337479        -0.394438
 H         2.133717        -2.646725        -0.421547
 H         4.350581         0.747348        -0.011547
 H         2.876753         2.682797         1.399381
 H         0.810492         1.891501         2.089864
 H         0.437192         0.478149        -0.836737
 H        -0.501077        -1.003275        -0.144422
 H        -0.863980         0.371022         0.577152
 H         1.153898        -1.131563         2.821175
