19
Iteration:   348
 C         2.698065        -1.919047        -0.400140
 C         2.501728        -0.721560         0.570292
 O         3.366713        -0.700375         1.748356
 C         3.471107         0.374200         0.750683
 C         2.873140         1.617013         1.334415
 C         1.626778         1.237547         1.604091
 C         1.097223        -0.109449         0.950504
 C         0.062183         0.269851        -0.152302
 O         0.301146        -1.013549         1.758840
 H         2.226964        -2.864349        -0.039652
 H         2.150298        -1.626604        -1.292628
 H         3.822516        -2.113069        -0.606160
 H         4.371007         0.268281         0.107436
 H         3.396297         2.518384         1.640545
 H         0.854407         1.656367         2.203960
 H        -0.004967        -0.540517        -0.935145
 H        -0.847619         0.339334         0.519352
 H         0.315644         1.173117        -0.727983
 H         0.624818        -1.235305         2.617758
