19
Iteration:   250charge 0 multiplicity 1
 C         2.564665        -1.489149        -0.604370
 C         2.441398        -0.646514         0.622430
 O         3.326745        -0.998218         1.672291
 C         3.526737         0.268232         0.971684
 C         2.866564         1.542948         1.358898
 C         1.563423         1.412996         1.439410
 C         1.092286        -0.059252         0.992231
 C         0.125600        -0.201646        -0.251977
 O         0.428472        -0.805302         2.032530
 H         1.785003        -2.251241        -0.699038
 H         2.561260        -0.768953        -1.433261
 H         3.622031        -1.921699        -0.605196
 H         4.459536         0.289408         0.436567
 H         3.360368         2.530581         1.485025
 H         0.734333         2.059905         1.748917
 H         0.174962        -1.234867        -0.637835
 H        -0.871978         0.049078         0.152279
 H         0.341432         0.326821        -1.192705
 H         1.137810        -1.023278         2.635763
