19
Iteration:  1402
 C         2.765437        -1.585783        -0.556197
 C         2.471137        -0.679875         0.634378
 O         3.539993        -0.778429         1.747502
 C         3.420900         0.300782         0.813289
 C         2.768121         1.497213         1.338959
 C         1.523896         1.097229         1.625095
 C         1.061813        -0.174878         1.012766
 C         0.171403         0.126590        -0.225872
 O         0.208715        -0.916475         1.872098
 H         2.247120        -2.569737        -0.626208
 H         2.292358        -1.227378        -1.470344
 H         3.921009        -1.631736        -0.851047
 H         4.235815         0.381910         0.172025
 H         3.179330         2.509229         1.326937
 H         0.776277         1.777779         2.110339
 H         0.801937         0.690538        -0.948719
 H        -0.288674        -0.771195        -0.674785
 H        -0.443314         1.037534         0.131551
 H         0.661966        -0.929916         2.713756
