19
Iteration:  4214
 C         2.576832        -1.578906        -0.694708
 C         2.487141        -0.614834         0.546078
 O         3.441477        -0.631735         1.628000
 C         3.471043         0.509103         0.736630
 C         2.720228         1.579005         1.423709
 C         1.384381         1.286597         1.427881
 C         1.125673        -0.185692         1.009559
 C         0.006997        -0.339273        -0.132165
 O         0.656369        -0.997455         2.196589
 H         2.618484        -1.036458        -1.736865
 H         3.483863        -2.222616        -0.541476
 H         1.762454        -2.271442        -0.516645
 H         4.485921         0.614906         0.209616
 H         3.091304         2.480492         1.865865
 H         0.526440         1.902654         1.673651
 H         0.155067         0.407961        -0.937762
 H         0.065517        -1.284953        -0.760361
 H        -0.899697        -0.267743         0.543524
 H         1.442994        -0.989279         2.707976
