19
Iteration:  3937charge 0 multiplicity 1
 C         2.699276        -1.698901        -0.645321
 C         2.475494        -0.646095         0.443620
 O         3.432436        -0.688507         1.680270
 C         3.384005         0.456805         0.777441
 C         2.694171         1.570942         1.543060
 C         1.400250         1.323898         1.550033
 C         1.074671        -0.119748         0.897153
 C        -0.020346        -0.293091        -0.092509
 O         0.677015        -0.881108         2.005493
 H         3.113519        -2.504279        -0.101991
 H         1.799660        -2.147855        -1.138063
 H         3.279016        -1.446395        -1.564975
 H         4.380230         0.517098         0.270298
 H         3.241016         2.499054         1.756279
 H         0.560914         1.875667         2.094004
 H         0.415434         0.144427        -1.019858
 H        -0.225856        -1.323767        -0.341625
 H        -0.767163         0.306602         0.330857
 H         1.523237        -0.791619         2.561480
