19
Iteration:  4631charge 0 multiplicity 1
 C         2.785795        -1.776603        -0.517959
 C         2.436762        -0.678538         0.569503
 O         3.605166        -0.653055         1.566452
 C         3.296767         0.454105         0.590157
 C         2.708867         1.598113         1.309299
 C         1.405910         1.275674         1.642009
 C         1.009426        -0.159914         1.096242
 C         0.084091         0.069568        -0.078338
 O         0.478458        -1.051762         2.013472
 H         3.429990        -2.606531        -0.120963
 H         2.034378        -2.507993        -0.842805
 H         3.420944        -1.473961        -1.382595
 H         4.137206         0.558830        -0.146635
 H         3.157183         2.553667         1.619742
 H         0.553039         1.798792         2.115857
 H         0.667002         0.207015        -0.998876
 H        -0.324354        -0.956261        -0.274952
 H        -0.722025         0.720146         0.216586
 H         1.137101        -1.265997         2.703355
