19
Iteration:  3627
 C         2.851113        -1.585305        -0.708450
 C         2.528245        -0.650117         0.401402
 O         3.474250        -0.733887         1.647628
 C         3.485230         0.470284         0.783294
 C         2.718554         1.598254         1.325974
 C         1.455252         1.187302         1.490866
 C         1.068602        -0.284431         0.970314
 C        -0.100975        -0.087953         0.035396
 O         0.443194        -0.975465         2.142872
 H         3.994363        -1.425049        -0.901729
 H         2.486065        -2.582547        -0.326760
 H         2.255587        -1.086592        -1.451396
 H         4.331668         0.707710         0.154854
 H         3.163147         2.526162         1.636586
 H         0.714602         1.836085         1.960981
 H         0.313129         0.289307        -0.875740
 H        -0.472726        -1.086857        -0.295154
 H        -1.008264         0.382702         0.508474
 H         1.033256        -0.860040         2.855261
