19
Iteration:  3471
 C         2.878233        -1.706972        -0.591034
 C         2.477776        -0.686068         0.500957
 O         3.483820        -0.660432         1.606987
 C         3.282076         0.477447         0.631604
 C         2.707182         1.523914         1.424462
 C         1.429603         1.180755         1.631757
 C         1.126041        -0.219630         1.037008
 C         0.099111        -0.039122        -0.093694
 O         0.390658        -0.904690         2.027001
 H         2.116628        -1.916774        -1.387115
 H         3.630628        -1.235772        -1.187715
 H         3.243745        -2.618822        -0.001422
 H         4.036264         0.575973        -0.130299
 H         3.235788         2.405286         1.670308
 H         0.668440         1.699456         2.230814
 H         0.531159         0.736613        -0.798026
 H        -0.316065        -0.968045        -0.498185
 H        -0.720398         0.446867         0.388793
 H         1.138143        -1.310657         2.575751
