19
Iteration:  2654charge 0 multiplicity 1
 C         2.672559        -1.781727        -0.464656
 C         2.575684        -0.671283         0.493728
 O         3.400104        -0.838054         1.543208
 C         3.514881         0.532849         0.873286
 C         2.680010         1.512617         1.694320
 C         1.363918         1.292618         1.497741
 C         1.079201        -0.157805         0.883906
 C         0.090671        -0.036065        -0.323910
 O         0.535697        -0.878229         1.939124
 H         3.284886        -1.296310        -1.251826
 H         3.182302        -2.591281         0.026714
 H         1.609405        -1.894597        -0.701302
 H         4.418996         0.674746         0.365247
 H         3.097726         2.326794         2.298894
 H         0.574197         1.745262         2.179827
 H         0.681044         0.545829        -1.118543
 H        -0.486914        -0.934313        -0.599504
 H        -0.746204         0.580194         0.032567
 H         1.250717        -0.859837         2.687381
