19
Iteration:  3006
 C         2.737382        -1.625673        -0.718962
 C         2.494774        -0.583701         0.422969
 O         3.366398        -0.863642         1.695177
 C         3.528319         0.448191         0.987043
 C         2.755265         1.655107         1.489269
 C         1.394958         1.355404         1.402052
 C         1.076530        -0.118754         0.971118
 C        -0.070515        -0.210956        -0.080717
 O         0.622713        -1.001250         2.007134
 H         2.535747        -1.162068        -1.730761
 H         3.817295        -1.825898        -0.692563
 H         2.184661        -2.551355        -0.481094
 H         4.447803         0.497234         0.436810
 H         3.150808         2.552719         1.920051
 H         0.508229         2.008876         1.610266
 H         0.265035         0.168773        -1.047383
 H        -0.581689        -1.160121        -0.212501
 H        -0.915391         0.422749         0.116463
 H         1.324930        -1.017320         2.672833
