19
Iteration:  3997
 C         2.693208        -1.642653        -0.730948
 C         2.536714        -0.724788         0.604097
 O         3.402456        -0.686580         1.754024
 C         3.466821         0.452113         0.772542
 C         2.613498         1.668863         1.283159
 C         1.399539         1.258715         1.548678
 C         1.093583        -0.115572         0.950092
 C         0.011568        -0.135626        -0.026635
 O         0.669483        -1.052248         1.990866
 H         2.987253        -2.701805        -0.379464
 H         1.672578        -1.716596        -1.152727
 H         3.550455        -1.271684        -1.267199
 H         4.458253         0.477071         0.255233
 H         3.015712         2.642300         1.569137
 H         0.615760         1.899169         1.991873
 H         0.353302        -0.137238        -1.098353
 H        -0.579238        -1.107544         0.180052
 H        -0.744663         0.721714         0.003119
 H         1.306107        -0.983343         2.669976
