19
Iteration:  1574charge 0 multiplicity 1
 C         2.659719        -1.528323        -0.718200
 C         2.543714        -0.676146         0.548829
 O         3.290399        -1.069321         1.640191
 C         3.543716         0.329813         1.083098
 C         2.757400         1.457475         1.596175
 C         1.446102         1.302871         1.393431
 C         1.103298        -0.012011         0.879011
 C         0.126961        -0.169287        -0.314267
 O         0.437459        -0.670783         2.089875
 H         2.312405        -2.529556        -0.707740
 H         2.468369        -1.030853        -1.605188
 H         3.744989        -1.790331        -0.928364
 H         4.480568         0.497230         0.593203
 H         3.165625         2.328712         2.117622
 H         0.770516         2.169687         1.647747
 H         0.632455         0.339034        -1.108770
 H         0.049283        -1.194323        -0.626492
 H        -0.843319         0.273670        -0.042162
 H         0.955313        -0.545795         2.867656
