19
Iteration:  2866charge 0 multiplicity 1
 C         2.642819        -1.685690        -0.470069
 C         2.463934        -0.598473         0.538424
 O         3.327257        -0.748158         1.621379
 C         3.503732         0.531699         0.763451
 C         2.669044         1.687029         1.386837
 C         1.427091         1.270264         1.569751
 C         1.119689        -0.170383         1.033848
 C         0.234008         0.050834        -0.176217
 O         0.528245        -1.265362         1.933724
 H         1.699834        -1.992152        -0.986143
 H         3.239720        -1.441735        -1.334796
 H         3.068366        -2.538959        -0.046006
 H         4.298639         0.706440         0.023756
 H         2.991878         2.700388         1.646386
 H         0.804311         1.910275         2.268572
 H         0.798678         0.022688        -1.129142
 H        -0.537431        -0.762463        -0.164989
 H        -0.379990         0.965090        -0.100547
 H         1.163076        -1.250758         2.687232
