19
Iteration:   931charge 0 multiplicity 1
 C         2.575345        -1.749476        -0.411877
 C         2.518198        -0.596461         0.442783
 O         3.421713        -0.817616         1.638032
 C         3.559899         0.367192         0.886479
 C         2.728375         1.538813         1.570263
 C         1.428724         1.221029         1.553294
 C         1.113115        -0.070944         0.903354
 C         0.101957         0.129227        -0.234383
 O         0.510561        -1.003744         1.799037
 H         1.888640        -2.513839         0.046258
 H         2.143985        -1.637814        -1.407737
 H         3.581371        -2.277313        -0.431853
 H         4.539277         0.483519         0.476204
 H         3.188170         2.382052         2.081853
 H         0.682971         1.725252         2.119093
 H         0.322301         1.197967        -0.641565
 H         0.241252        -0.585857        -1.116578
 H        -0.936213         0.199455         0.173835
 H         0.690236        -0.774684         2.677101
