19
Iteration:  4390charge 0 multiplicity 1
 C         2.737976        -1.832872        -0.514213
 C         2.533696        -0.660887         0.486174
 O         3.421346        -0.512781         1.599222
 C         3.411717         0.532950         0.620066
 C         2.678945         1.653672         1.274421
 C         1.481834         1.238559         1.608079
 C         1.179347        -0.249371         0.994821
 C        -0.116462        -0.062914         0.089014
 O         0.557728        -1.158520         1.966308
 H         2.867510        -1.392924        -1.497723
 H         3.716052        -2.127058        -0.167025
 H         1.895216        -2.493993        -0.441964
 H         4.303273         0.799841         0.133712
 H         3.186892         2.614930         1.443680
 H         0.632703         1.835133         1.976623
 H         0.171892         0.696219        -0.722354
 H        -0.412842        -1.043200        -0.319691
 H        -0.658290         0.683545         0.671758
 H         1.309485        -1.131271         2.666364
