19
Iteration:  2857charge 0 multiplicity 1
 C         2.654240        -1.698011        -0.572501
 C         2.457817        -0.681852         0.639014
 O         3.327474        -0.764070         1.665159
 C         3.480915         0.558884         0.747642
 C         2.688298         1.715126         1.262113
 C         1.434987         1.274325         1.673612
 C         1.064905        -0.131602         1.076765
 C         0.225017         0.056565        -0.177068
 O         0.570951        -1.268727         1.896681
 H         1.637629        -2.109003        -0.927367
 H         3.199744        -1.142671        -1.276343
 H         3.189956        -2.543881        -0.228485
 H         4.478078         0.528489         0.369239
 H         3.006352         2.695723         1.574656
 H         0.658630         1.970251         2.109641
 H         0.785139         0.114954        -1.168122
 H        -0.512356        -0.798516        -0.225469
 H        -0.405831         0.944706        -0.240426
 H         1.073502        -1.132434         2.727697
