19
Iteration:  2456
 C         2.958607        -1.592532        -0.668353
 C         2.527640        -0.795247         0.502607
 O         3.200761        -0.882663         1.842911
 C         3.427253         0.331112         0.968584
 C         2.751953         1.520524         1.478236
 C         1.440642         1.271445         1.356955
 C         1.156409        -0.106975         0.864846
 C        -0.102548         0.054863        -0.201608
 O         0.566717        -0.864827         1.967068
 H         1.952778        -1.734184        -1.215907
 H         3.586068        -0.900967        -1.305194
 H         3.466238        -2.477880        -0.339388
 H         4.439506         0.474646         0.485508
 H         3.422713         2.328565         1.696475
 H         0.629840         1.777967         1.853689
 H        -0.033351         1.040315        -0.763989
 H        -0.511947        -0.784190        -0.876483
 H        -0.848150         0.250176         0.661320
 H         1.253305        -1.087123         2.730710
