19
Iteration:    89
 C         2.829551        -1.876843        -0.411521
 C         2.424228        -0.722858         0.503824
 O         3.454711        -0.803653         1.515043
 C         3.370472         0.448155         0.688239
 C         2.733061         1.535935         1.400261
 C         1.415604         1.264129         1.647663
 C         1.013108        -0.071243         1.088698
 C         0.301363         0.268522        -0.302684
 O         0.300113        -1.005863         2.025371
 H         2.422582        -2.803084         0.005558
 H         2.627592        -1.895607        -1.444105
 H         3.954118        -1.950330        -0.234010
 H         4.175536         0.639259        -0.013974
 H         3.359086         2.299544         1.963612
 H         0.696641         1.867696         2.265639
 H         0.050255        -0.652192        -0.837331
 H        -0.653459         0.721720        -0.045539
 H         0.890034         0.895931        -0.922719
 H         0.900223        -1.188665         2.736245
