19
Iteration:  1031
 C         2.775722        -1.700868        -0.577394
 C         2.607364        -0.643886         0.421463
 O         3.201784        -0.891830         1.709756
 C         3.554139         0.388397         0.998625
 C         2.736095         1.570082         1.540127
 C         1.435395         1.216103         1.523684
 C         1.149715        -0.113898         0.833990
 C        -0.100569         0.083955        -0.145968
 O         0.618853        -0.924184         1.844687
 H         1.948251        -2.452636        -0.470979
 H         2.771855        -1.319079        -1.662367
 H         3.695923        -2.188868        -0.468621
 H         4.604713         0.478619         0.699681
 H         3.198515         2.485231         1.923507
 H         0.628566         1.904223         1.870070
 H         0.176663        -0.112809        -1.177598
 H        -0.872803        -0.597177         0.260309
 H        -0.672054         1.065473        -0.091301
 H         1.058509        -0.678484         2.605741
