19
Iteration:  4086
 C         2.616457        -1.705268        -0.444934
 C         2.500870        -0.589214         0.444883
 O         3.452545        -0.571933         1.562481
 C         3.468340         0.542609         0.746648
 C         2.711290         1.561821         1.364160
 C         1.421308         1.263733         1.548149
 C         1.080481        -0.236012         1.004854
 C        -0.028115        -0.143586        -0.131672
 O         0.638531        -1.096007         2.028336
 H         1.716625        -2.263252        -0.582611
 H         3.034683        -1.633606        -1.491535
 H         3.148416        -2.527271         0.062861
 H         4.391718         0.838709         0.179613
 H         3.039864         2.522308         1.690146
 H         0.787208         1.871258         2.207242
 H         0.223720         0.831364        -0.515369
 H         0.199681        -1.018313        -0.719368
 H        -1.055362        -0.162168         0.181204
 H         1.373078        -0.964220         2.642898
