19
Iteration:  3164charge 0 multiplicity 1
 C         2.633898        -1.833717        -0.453075
 C         2.534796        -0.556056         0.431339
 O         3.510952        -0.721145         1.533948
 C         3.457823         0.577806         0.763627
 C         2.650055         1.545277         1.523972
 C         1.394959         1.220635         1.554746
 C         1.088437        -0.174414         0.993768
 C         0.031183         0.030351        -0.211012
 O         0.580148        -1.047205         2.067186
 H         3.108358        -1.591887        -1.369332
 H         3.275549        -2.662555        -0.015812
 H         1.630759        -2.204421        -0.758747
 H         4.264871         1.047470         0.155244
 H         2.968310         2.523694         1.827249
 H         0.550530         1.848083         1.919182
 H         0.457840         0.687597        -0.973170
 H        -0.063907        -0.976773        -0.654057
 H        -1.020770         0.365149         0.016709
 H         1.443199        -1.327549         2.494714
