19
Iteration:  3398
 C         2.596733        -1.737106        -0.538448
 C         2.474068        -0.566573         0.447486
 O         3.367461        -0.633806         1.676591
 C         3.470463         0.508825         0.796926
 C         2.730586         1.620653         1.431600
 C         1.440390         1.266965         1.530244
 C         1.098493        -0.146912         0.953443
 C        -0.068115        -0.103054        -0.126084
 O         0.738819        -1.131850         1.958593
 H         3.034406        -1.477354        -1.633328
 H         3.338817        -2.455060        -0.191186
 H         1.599405        -2.203596        -0.621587
 H         4.442787         0.666158         0.261955
 H         3.179588         2.422147         1.951946
 H         0.734912         1.792632         2.206778
 H         0.356749         0.479176        -1.010014
 H        -0.617784        -1.048460        -0.284240
 H        -0.775939         0.565562         0.388878
 H         1.659141        -1.467420         2.321583
