19
Iteration:  3448charge 0 multiplicity 1
 C         2.627047        -1.699132        -0.509045
 C         2.514743        -0.641948         0.528313
 O         3.522991        -0.722458         1.504546
 C         3.475566         0.498266         0.784604
 C         2.677701         1.630184         1.393589
 C         1.375917         1.265379         1.580514
 C         1.038317        -0.140284         1.047945
 C         0.104228        -0.038371        -0.186427
 O         0.520635        -1.118762         2.036688
 H         1.863176        -1.659686        -1.226437
 H         3.503886        -1.513819        -1.119313
 H         2.635365        -2.650498         0.113084
 H         4.363190         0.647404         0.223255
 H         3.161187         2.567047         1.662215
 H         0.639633         1.844008         2.177099
 H         0.656602         0.698166        -0.784692
 H         0.148277        -1.046153        -0.591035
 H        -0.942603         0.208474        -0.090755
 H         1.073063        -0.994616         2.798865
