19
Iteration:  2174
 C         2.939555        -1.494292        -0.719995
 C         2.499442        -0.688176         0.467983
 O         3.343857        -0.959119         1.731113
 C         3.414223         0.274794         1.032244
 C         2.752741         1.457473         1.533646
 C         1.458352         1.293120         1.258240
 C         0.996779        -0.045913         0.959722
 C        -0.069553        -0.054376        -0.092341
 O         0.501680        -0.787036         1.986054
 H         2.418082        -2.411026        -1.063762
 H         3.230610        -0.920585        -1.608732
 H         3.884261        -1.855922        -0.279635
 H         4.386314         0.438384         0.551071
 H         3.201068         2.429753         1.836799
 H         0.805574         2.103163         1.579386
 H         0.138860         0.491282        -1.006424
 H        -0.255549        -1.137728        -0.270323
 H        -0.885466         0.271564         0.563606
 H         1.201042        -1.251044         2.450796
