19
Iteration:   149
 C         2.465808        -1.612572        -0.613513
 C         2.566492        -0.608973         0.541787
 O         3.329912        -0.805299         1.754032
 C         3.551912         0.395113         0.952200
 C         2.867063         1.547834         1.471076
 C         1.537036         1.281820         1.487595
 C         1.093162        -0.108528         0.953428
 C         0.116177        -0.165049        -0.241137
 O         0.456083        -0.934722         1.896711
 H         2.038858        -2.579965        -0.239837
 H         2.004173        -1.034154        -1.477406
 H         3.450406        -1.830311        -0.995176
 H         4.577977         0.561882         0.635685
 H         3.255581         2.507744         1.605785
 H         0.748029         1.942171         1.793445
 H        -0.316258        -1.183685        -0.336175
 H        -0.791602         0.461912        -0.048915
 H         0.528817         0.266136        -1.212480
 H         1.117922        -0.896507         2.748373
