19
Iteration:   197charge 0 multiplicity 1
 C         2.885860        -1.726135        -0.644710
 C         2.591133        -0.699192         0.456239
 O         3.156429        -0.992233         1.660064
 C         3.465170         0.348831         0.942196
 C         2.754371         1.530620         1.494270
 C         1.413962         1.233437         1.429658
 C         1.084745        -0.078499         0.774260
 C        -0.115350         0.067642        -0.139046
 O         0.671358        -0.697814         2.129296
 H         2.084068        -2.424251        -0.680482
 H         3.196744        -1.349823        -1.565345
 H         3.724484        -2.375587        -0.288802
 H         4.520455         0.380128         0.636529
 H         3.074969         2.520411         1.905575
 H         0.481276         1.819545         1.625215
 H        -0.462315        -0.830400        -0.638557
 H        -0.972654         0.380951         0.446814
 H         0.059238         0.872291        -0.799415
 H         1.647475        -0.940457         2.474273
