19
Iteration:  3176
 C         2.560278        -1.760091        -0.599851
 C         2.483687        -0.659043         0.457440
 O         3.611896        -0.600207         1.591226
 C         3.408812         0.470027         0.802743
 C         2.670692         1.596844         1.508999
 C         1.332089         1.280749         1.593840
 C         1.064820        -0.191436         0.974071
 C         0.120389        -0.102951        -0.260403
 O         0.583012        -1.001482         2.080481
 H         3.137222        -1.625641        -1.448627
 H         2.982877        -2.626090         0.007915
 H         1.526580        -2.139577        -0.823785
 H         4.304306         0.615826         0.165846
 H         3.268775         2.357698         1.985678
 H         0.592936         1.896874         2.134047
 H         0.528706         0.755090        -0.807133
 H        -0.087934        -0.975562        -0.927115
 H        -0.824337         0.274888         0.250392
 H         1.329804        -1.375542         2.492229
