19
Iteration:  3489
 C         2.957732        -1.709771        -0.576346
 C         2.495406        -0.764166         0.537375
 O         3.497652        -0.677517         1.537464
 C         3.439698         0.475176         0.729033
 C         2.648547         1.626987         1.302503
 C         1.484520         1.092793         1.691376
 C         1.089976        -0.184827         0.998752
 C        -0.050124         0.035396        -0.100906
 O         0.346649        -0.881261         2.045905
 H         2.170376        -2.042368        -1.178314
 H         3.725632        -1.241146        -1.264061
 H         3.354266        -2.665217        -0.332028
 H         4.360133         0.589395         0.174312
 H         2.989280         2.555649         1.833348
 H         0.719119         1.360339         2.431927
 H         0.251227         0.364033        -1.045090
 H        -0.480800        -0.958058        -0.337812
 H        -0.884423         0.638690         0.340791
 H         1.055264        -1.379606         2.558013
