19
Iteration:  4142charge 0 multiplicity 1
 C         2.714581        -1.684563        -0.621397
 C         2.523347        -0.634481         0.468178
 O         3.442124        -0.616159         1.669583
 C         3.534271         0.469320         0.744628
 C         2.603395         1.652543         1.242876
 C         1.384200         1.192703         1.471281
 C         1.087492        -0.230479         1.016039
 C        -0.097960         0.015020        -0.069099
 O         0.657571        -1.169085         2.157839
 H         2.045355        -1.596088        -1.381622
 H         3.746755        -1.424645        -0.981342
 H         2.786934        -2.580785         0.030252
 H         4.397175         0.624570         0.159347
 H         2.995527         2.585935         1.676534
 H         0.641392         1.828463         1.918874
 H         0.285418         0.184021        -1.078428
 H        -0.561872        -0.920195        -0.266013
 H        -0.731949         0.699868         0.400956
 H         1.371963        -1.068857         2.752344
