19
Iteration:  3729charge 0 multiplicity 1
 C         2.822889        -1.690177        -0.514786
 C         2.501504        -0.592021         0.471412
 O         3.453377        -0.734701         1.570133
 C         3.473942         0.500271         0.708775
 C         2.691725         1.594679         1.349757
 C         1.434931         1.210660         1.539941
 C         1.037494        -0.062150         0.981608
 C        -0.151130        -0.082101         0.003242
 O         0.601533        -1.089055         2.044721
 H         2.616067        -2.577590        -0.060450
 H         2.412249        -1.543316        -1.524556
 H         3.883979        -1.624236        -0.828877
 H         4.314049         0.744221        -0.022114
 H         3.199169         2.557656         1.669403
 H         0.607539         1.658755         2.086651
 H        -0.067293         0.479073        -0.929094
 H        -0.379689        -1.078496        -0.294095
 H        -1.013143         0.374277         0.434474
 H         1.375512        -1.227613         2.648521
