19
Iteration:   536
 C         2.604856        -1.657797        -0.642735
 C         2.574244        -0.620869         0.485273
 O         3.320742        -0.976397         1.628994
 C         3.526100         0.379522         1.004465
 C         2.826464         1.476767         1.680215
 C         1.565220         1.375911         1.403043
 C         1.092140        -0.023078         0.879023
 C         0.091354        -0.265071        -0.227841
 O         0.378087        -0.622649         1.947965
 H         1.950848        -2.551962        -0.512633
 H         2.471925        -1.121882        -1.652717
 H         3.605814        -2.035806        -0.602365
 H         4.534686         0.440746         0.672236
 H         3.328616         2.229903         2.350379
 H         0.746650         1.912863         1.908649
 H         0.189255        -1.252534        -0.695290
 H        -0.896705        -0.293748         0.290931
 H         0.013586         0.451155        -1.091775
 H         1.067046        -1.035536         2.619534
