19
Iteration:  1777
 C         2.537688        -1.689533        -0.537035
 C         2.532748        -0.682155         0.573251
 O         3.239136        -0.696112         1.813750
 C         3.576199         0.369541         0.876476
 C         2.761272         1.588191         1.347553
 C         1.486811         1.249981         1.583694
 C         1.178396        -0.164277         0.972679
 C         0.246128         0.154047        -0.198356
 O         0.396902        -1.100709         1.770500
 H         2.302903        -2.725750        -0.142073
 H         1.756105        -1.494334        -1.325682
 H         3.513429        -1.798168        -0.886943
 H         4.594889         0.323353         0.510090
 H         3.258017         2.519858         1.511911
 H         0.784489         1.871770         2.144750
 H         0.898405         0.700031        -0.881019
 H        -0.196204        -0.744684        -0.714365
 H        -0.562220         0.769021         0.175565
 H         1.195505        -1.450010         2.340223
