19
Iteration:  3069charge 0 multiplicity 1
 C         2.659188        -1.704686        -0.656519
 C         2.573531        -0.634393         0.520687
 O         3.412776        -0.843975         1.593702
 C         3.472540         0.428298         0.863404
 C         2.650619         1.604045         1.486610
 C         1.308530         1.323534         1.535150
 C         1.091049        -0.101259         1.018879
 C         0.116688        -0.162389        -0.227394
 O         0.584416        -0.914004         2.102088
 H         2.018733        -1.413525        -1.462638
 H         3.638774        -1.513495        -1.189134
 H         2.468073        -2.809059        -0.515301
 H         4.425816         0.570582         0.372199
 H         3.120100         2.557193         1.657574
 H         0.559851         2.131801         1.714533
 H         0.570660         0.623722        -0.836688
 H         0.070809        -1.167502        -0.711429
 H        -0.948879         0.109195         0.050527
 H         1.216293        -0.868719         2.805135
