19
Iteration:  4732charge 0 multiplicity 1
 C         2.749732        -1.778589        -0.550988
 C         2.549524        -0.637897         0.464165
 O         3.329015        -0.748354         1.602034
 C         3.433625         0.487864         0.749144
 C         2.730661         1.567109         1.368189
 C         1.412456         1.306949         1.524082
 C         1.106168        -0.047917         0.949108
 C        -0.005621        -0.090038        -0.091044
 O         0.576735        -0.959999         2.090266
 H         3.702300        -1.592315        -1.026661
 H         2.724890        -2.793005        -0.080759
 H         2.002423        -2.031219        -1.303637
 H         4.445013         0.573948         0.431944
 H         3.137628         2.552176         1.663266
 H         0.629729         1.761515         2.150051
 H         0.161115         0.799828        -0.743146
 H         0.144931        -1.059131        -0.560347
 H        -1.010995        -0.173230         0.327472
 H         1.410652        -1.253503         2.609179
