19
Iteration:  3146charge 0 multiplicity 1
 C         2.729493        -1.759836        -0.404153
 C         2.504058        -0.616722         0.485650
 O         3.412163        -0.760237         1.527216
 C         3.436997         0.523791         0.718662
 C         2.623370         1.639200         1.427508
 C         1.373174         1.232179         1.622587
 C         1.108671        -0.143128         0.928100
 C         0.030079         0.018971        -0.067292
 O         0.632660        -1.068122         1.869090
 H         3.215435        -1.645477        -1.367522
 H         3.446062        -2.394084         0.136060
 H         1.823218        -2.402156        -0.438156
 H         4.433000         0.515413         0.319587
 H         3.107169         2.531851         1.829760
 H         0.578036         1.654100         2.213257
 H         0.417083         0.709793        -0.861494
 H        -0.427833        -0.959134        -0.362749
 H        -0.707970         0.622325         0.521900
 H         1.290042        -0.979066         2.619297
