19
Iteration:  2931
 C         2.681588        -1.711193        -0.511038
 C         2.478767        -0.527616         0.441830
 O         3.452823        -0.700313         1.549539
 C         3.519418         0.498017         0.806663
 C         2.692355         1.490562         1.510352
 C         1.419063         1.188638         1.567131
 C         1.091912        -0.132005         0.979018
 C         0.108949        -0.113978        -0.112621
 O         0.469882        -0.995627         1.970401
 H         2.595944        -1.428841        -1.611810
 H         3.718720        -1.797241        -0.298859
 H         2.123685        -2.580989        -0.271903
 H         4.304604         0.593906         0.067435
 H         2.994659         2.453329         1.886978
 H         0.699200         2.017863         1.752455
 H         0.227483         0.780949        -0.719363
 H         0.115628        -1.023953        -0.717771
 H        -0.914525        -0.094234         0.209782
 H         1.028380        -0.961782         2.704758
