19
Iteration:  3683charge 0 multiplicity 1
 C         2.477001        -1.645786        -0.531904
 C         2.481172        -0.562278         0.454226
 O         3.368661        -0.720916         1.569323
 C         3.579657         0.491931         0.782028
 C         2.639651         1.656415         1.534656
 C         1.337792         1.301082         1.459393
 C         1.096502        -0.171898         0.956180
 C         0.064803        -0.186250        -0.200619
 O         0.829709        -1.089596         2.120295
 H         2.866545        -2.583478        -0.101102
 H         1.478977        -1.936928        -0.959869
 H         2.912193        -1.450371        -1.484907
 H         4.566473         0.637765         0.455668
 H         2.928904         2.636675         1.855057
 H         0.625874         1.970836         1.986484
 H         0.358356         0.274531        -1.079438
 H        -0.134643        -1.245201        -0.442204
 H        -0.924315         0.271194         0.082665
 H         1.598902        -1.070853         2.705405
