19
Iteration:  4291charge 0 multiplicity 1
 C         2.776191        -1.739198        -0.578601
 C         2.512195        -0.569207         0.484021
 O         3.420240        -0.696366         1.626068
 C         3.394627         0.492688         0.713192
 C         2.657080         1.569884         1.383381
 C         1.408071         1.265358         1.545451
 C         1.114377        -0.118188         0.923482
 C        -0.126159        -0.193614        -0.030504
 O         0.693417        -1.012641         2.020008
 H         1.878679        -1.773779        -1.191335
 H         3.623582        -1.250671        -0.989457
 H         3.188265        -2.597450        -0.142591
 H         4.344922         0.670410         0.247855
 H         3.188207         2.492827         1.702373
 H         0.689127         1.890348         2.088755
 H         0.005101         0.186065        -1.060644
 H        -0.402286        -1.262374         0.108729
 H        -1.016737         0.286952         0.453043
 H         1.410459        -0.658174         2.653490
