19
Iteration:  4129charge 0 multiplicity 1
 C         2.761635        -1.655951        -0.513149
 C         2.519270        -0.603861         0.502252
 O         3.422538        -0.680630         1.669342
 C         3.422982         0.476361         0.764028
 C         2.605805         1.625788         1.170459
 C         1.374312         1.235839         1.537499
 C         1.118266        -0.170666         1.007905
 C        -0.024565        -0.051079         0.016344
 O         0.683863        -1.127129         2.010810
 H         1.784913        -1.735939        -1.042319
 H         3.565857        -1.500104        -1.320904
 H         2.853555        -2.743235        -0.284107
 H         4.389726         0.529779         0.235424
 H         3.026888         2.618379         1.235263
 H         0.540952         1.727039         1.998375
 H         0.294158         0.569309        -0.824250
 H        -0.595232        -0.975052        -0.167495
 H        -0.820386         0.620656         0.363278
 H         1.491678        -1.331168         2.600856
