19
Iteration:  4824
 C         2.579381        -1.499619        -0.692607
 C         2.519622        -0.600776         0.475498
 O         3.258989        -0.751433         1.732804
 C         3.588234         0.309240         0.875032
 C         2.682094         1.501111         1.451783
 C         1.349417         1.301357         1.372562
 C         1.112555        -0.085656         0.874697
 C         0.038498        -0.420263        -0.107251
 O         0.776732        -0.738118         2.138247
 H         3.362506        -2.260931        -0.626732
 H         1.672506        -2.009142        -0.813802
 H         2.626437        -0.972867        -1.610582
 H         4.582491         0.371525         0.436628
 H         3.086979         2.150934         2.170760
 H         0.556949         2.007849         1.661113
 H         0.396740        -0.145432        -1.122787
 H        -0.278457        -1.458099        -0.236255
 H        -0.999697        -0.069730        -0.081303
 H         1.550116        -0.702486         2.794594
