19
Iteration:  1990charge 0 multiplicity 1
 C         2.450949        -1.816267        -0.388367
 C         2.484647        -0.649031         0.548911
 O         3.431008        -0.758236         1.658720
 C         3.479631         0.503912         0.776443
 C         2.719380         1.598820         1.561029
 C         1.493795         1.174851         1.642529
 C         1.149463        -0.090518         0.864092
 C         0.288930         0.116634        -0.246895
 O         0.485472        -1.012935         1.732814
 H         1.915053        -2.689757         0.123331
 H         1.834019        -1.784313        -1.312922
 H         3.512194        -2.134379        -0.543449
 H         4.453462         0.635316         0.361392
 H         3.028941         2.439305         2.176322
 H         0.725811         1.507197         2.322330
 H         0.363200         1.025703        -0.874284
 H         0.220374        -0.717698        -1.002987
 H        -0.702152         0.072916         0.266617
 H         0.751055        -0.940563         2.613109
