19
Iteration:   155
 C         2.507039        -1.613730        -0.611993
 C         2.465530        -0.599993         0.542609
 O         3.282854        -0.822773         1.721032
 C         3.526932         0.370094         0.991186
 C         2.847587         1.538446         1.477816
 C         1.499963         1.312549         1.453571
 C         1.129720        -0.086819         0.964587
 C         0.097876        -0.117719        -0.252978
 O         0.556560        -0.960458         1.923018
 H         2.015410        -2.521012        -0.281236
 H         2.104644        -1.183143        -1.521035
 H         3.584661        -1.886267        -0.797005
 H         4.578262         0.486499         0.615890
 H         3.390893         2.519791         1.658386
 H         0.843119         2.181980         1.687282
 H        -0.181695        -1.172389        -0.321313
 H        -0.796133         0.458870        -0.030108
 H         0.497739         0.127193        -1.214055
 H         1.194791        -0.982486         2.623523
