19
Iteration:  4265
 C         2.880565        -1.651402        -0.632614
 C         2.523200        -0.553259         0.418727
 O         3.277960        -0.737597         1.625971
 C         3.433550         0.464829         0.791768
 C         2.693701         1.665741         1.326206
 C         1.410855         1.291903         1.340924
 C         1.099954        -0.217847         1.022401
 C        -0.170333        -0.113256         0.095361
 O         0.697734        -1.086473         2.118378
 H         2.116517        -1.558626        -1.402435
 H         3.915999        -1.475857        -0.898913
 H         2.924084        -2.616810        -0.081289
 H         4.448394         0.474129         0.277345
 H         3.080779         2.617888         1.594792
 H         0.621756         1.913737         1.738299
 H         0.266715         0.379391        -0.741727
 H        -0.448991        -1.122108        -0.178954
 H        -1.086770         0.341497         0.480837
 H         1.650777        -1.275489         2.447644
