19
Iteration:   397charge 0 multiplicity 1
 C         2.402543        -1.811492        -0.521244
 C         2.529072        -0.735331         0.579184
 O         3.438642        -0.842931         1.621935
 C         3.401564         0.458856         0.828324
 C         2.731864         1.658785         1.477153
 C         1.424540         1.382149         1.552123
 C         1.103639        -0.118622         1.017811
 C         0.424550         0.048424        -0.336973
 O         0.436697        -0.992800         1.986894
 H         1.458834        -2.317268        -0.365414
 H         2.523064        -1.498180        -1.563946
 H         3.125541        -2.506304        -0.262530
 H         4.334065         0.647743         0.363938
 H         3.275918         2.523486         1.782576
 H         0.647260         1.986245         1.993693
 H        -0.020269        -0.811436        -0.811615
 H        -0.342544         0.749739        -0.166738
 H         1.178344         0.533509        -0.957447
 H         1.158917        -1.397712         2.590546
