19
Iteration:   602
 C         2.645790        -1.705134        -0.549942
 C         2.538109        -0.657583         0.517289
 O         3.223212        -0.841366         1.842593
 C         3.524206         0.368893         0.913515
 C         2.722356         1.559021         1.208903
 C         1.505834         1.259801         1.581910
 C         1.119978        -0.105689         1.006927
 C         0.186109         0.223068        -0.208975
 O         0.460950        -1.066733         1.882245
 H         1.904761        -2.541938        -0.428101
 H         2.406735        -1.184203        -1.538268
 H         3.642765        -2.124409        -0.534002
 H         4.576761         0.405611         0.718564
 H         3.136022         2.580192         1.143405
 H         0.866320         2.019065         1.979104
 H        -0.571771        -0.585707        -0.268419
 H        -0.270535         1.225641        -0.119107
 H         0.800244         0.070640        -1.113914
 H         1.206005        -1.516632         2.432722
