19
Iteration:  4472charge 0 multiplicity 1
 C         2.633908        -1.605458        -0.636865
 C         2.459219        -0.646784         0.456267
 O         3.478758        -0.723171         1.562601
 C         3.429483         0.471742         0.737896
 C         2.660860         1.584025         1.384260
 C         1.391525         1.283523         1.536328
 C         1.119650        -0.122368         0.995063
 C         0.064204        -0.318086        -0.075432
 O         0.650263        -0.892584         2.183718
 H         2.490239        -1.064620        -1.576557
 H         3.553149        -2.189580        -0.570667
 H         1.798403        -2.313592        -0.457551
 H         4.251158         0.583971         0.017285
 H         3.061111         2.571808         1.532464
 H         0.685428         1.894385         2.093239
 H         0.149529         0.114940        -1.016297
 H        -0.172739        -1.311157        -0.312803
 H        -0.894271        -0.138339         0.318574
 H         1.475716        -0.915476         2.762618
