19
Iteration:   967charge 0 multiplicity 1
 C         2.576455        -1.644227        -0.614932
 C         2.513142        -0.664526         0.550732
 O         3.458591        -0.811532         1.701911
 C         3.452549         0.354578         0.837213
 C         2.723665         1.545871         1.436343
 C         1.410340         1.265324         1.655349
 C         1.106591        -0.127981         1.021444
 C         0.308718         0.049490        -0.271363
 O         0.363831        -0.939567         1.904521
 H         2.015367        -2.536556        -0.284221
 H         2.167074        -1.172019        -1.563656
 H         3.562051        -1.883281        -0.854144
 H         4.427762         0.414568         0.305628
 H         3.156036         2.466320         1.882713
 H         0.646840         1.773231         2.347443
 H         0.996903        -0.000255        -1.058981
 H        -0.312092        -0.810948        -0.393739
 H        -0.317227         0.933254        -0.404701
 H         0.958331        -1.375777         2.445448
