19
Iteration:  4067charge 0 multiplicity 1
 C         2.647322        -1.800222        -0.466226
 C         2.540454        -0.631534         0.510109
 O         3.557811        -0.661717         1.559322
 C         3.406110         0.537335         0.663169
 C         2.616296         1.617349         1.452027
 C         1.327187         1.153201         1.584062
 C         1.109812        -0.109119         0.946833
 C         0.026593        -0.118529        -0.191098
 O         0.637238        -0.955756         2.066018
 H         1.759201        -2.370348        -0.439285
 H         2.649623        -1.415113        -1.507673
 H         3.492446        -2.491367        -0.169439
 H         4.227947         0.697606         0.011424
 H         3.096263         2.449659         1.961147
 H         0.446442         1.528672         2.069563
 H        -0.020302         0.951165        -0.643048
 H         0.063597        -1.002984        -0.849026
 H        -0.841426        -0.188616         0.453147
 H         1.489608        -0.921534         2.616046
