19
Iteration:   731charge 0 multiplicity 1
 C         2.632398        -1.616990        -0.531063
 C         2.671500        -0.698853         0.612856
 O         3.218353        -0.970188         1.856636
 C         3.600272         0.306519         0.996342
 C         2.798619         1.556689         1.195658
 C         1.480490         1.301097         1.488235
 C         1.122377        -0.016787         0.922468
 C         0.032009         0.062384        -0.213437
 O         0.451726        -0.929818         1.868266
 H         1.913226        -2.456474        -0.341030
 H         2.378799        -0.869979        -1.401096
 H         3.620775        -1.888547        -0.869698
 H         4.621803         0.484569         0.693871
 H         3.340325         2.459339         1.304638
 H         0.792530         1.954987         1.921466
 H         0.316160        -0.536881        -1.168890
 H        -1.009929        -0.353823         0.054086
 H        -0.139836         1.162774        -0.529254
 H         0.951596        -1.160410         2.589813
