19
Iteration:  4727
 C         2.695313        -1.760735        -0.493590
 C         2.508272        -0.606457         0.413984
 O         3.368512        -0.732179         1.573554
 C         3.447265         0.447335         0.781308
 C         2.715070         1.597929         1.382096
 C         1.418355         1.311767         1.541064
 C         1.070686        -0.077332         1.015194
 C         0.047600        -0.094805        -0.070198
 O         0.590913        -0.974225         2.036624
 H         3.718724        -1.803850        -0.995132
 H         2.776773        -2.704721         0.088410
 H         1.979429        -1.975891        -1.325075
 H         4.468184         0.603870         0.366658
 H         3.253322         2.518761         1.550289
 H         0.585917         1.823517         2.024363
 H         0.154919         0.623119        -0.884470
 H         0.116926        -0.991098        -0.749702
 H        -0.993520        -0.173894         0.273233
 H         1.316620        -1.287499         2.549124
