19
Iteration:   981charge 0 multiplicity 1
 C         2.687827        -1.525124        -0.495258
 C         2.408618        -0.634689         0.640510
 O         3.433329        -0.878843         1.639596
 C         3.509188         0.370782         0.850853
 C         2.726457         1.512255         1.362317
 C         1.459818         1.144333         1.622841
 C         1.064302        -0.092540         0.987156
 C         0.223278         0.047744        -0.329710
 O         0.350751        -0.932946         1.954512
 H         2.219254        -2.492893        -0.473888
 H         2.480020        -1.135919        -1.466072
 H         3.809889        -1.668478        -0.506343
 H         4.358473         0.524011         0.128610
 H         3.246853         2.390910         1.618491
 H         0.836710         1.712594         2.313000
 H         0.856403        -0.028959        -1.206429
 H        -0.666553        -0.524394        -0.184867
 H        -0.193541         1.028111        -0.282835
 H         1.104822        -1.560126         2.392651
