19
Iteration:   812
 C         2.684095        -1.649545        -0.654548
 C         2.525690        -0.700867         0.457183
 O         3.378580        -0.907144         1.632614
 C         3.532686         0.378784         0.963983
 C         2.815201         1.487842         1.584297
 C         1.503282         1.229279         1.545190
 C         1.116843        -0.050569         0.884824
 C         0.112691        -0.159785        -0.280940
 O         0.312439        -0.614935         2.027637
 H         1.827477        -2.344341        -0.764520
 H         2.825325        -1.297264        -1.652296
 H         3.515251        -2.395689        -0.370459
 H         4.537736         0.496669         0.580111
 H         3.211075         2.416411         1.986472
 H         0.745804         1.886931         1.940907
 H        -0.590797        -0.914172         0.078732
 H        -0.413212         0.796371        -0.305221
 H         0.438735        -0.490367        -1.261262
 H         0.917826        -1.081049         2.702954
