19
Iteration:   886charge 0 multiplicity 1
 C         2.726781        -1.857707        -0.529284
 C         2.492448        -0.682261         0.440336
 O         3.175054        -0.741270         1.761914
 C         3.494800         0.404932         0.915766
 C         2.832539         1.594585         1.473806
 C         1.526330         1.305547         1.523712
 C         1.158675        -0.138394         0.874757
 C         0.099454         0.182570        -0.120258
 O         0.455366        -1.006050         1.825868
 H         2.133739        -2.768062        -0.245629
 H         2.342961        -1.689715        -1.525964
 H         3.855133        -2.160229        -0.613732
 H         4.449290         0.454742         0.384662
 H         3.439080         2.329424         1.951871
 H         0.759925         1.941608         1.974143
 H        -0.495996         1.102652         0.305976
 H         0.531967         0.375171        -1.183506
 H        -0.634525        -0.686441        -0.118275
 H         1.112517        -1.516909         2.216674
