19
Iteration:  4493charge 0 multiplicity 1
 C         2.726745        -1.528827        -0.645093
 C         2.435516        -0.640811         0.530830
 O         3.533726        -0.821513         1.530848
 C         3.496154         0.514785         0.726236
 C         2.693563         1.597122         1.347243
 C         1.405618         1.289756         1.407252
 C         1.074023        -0.194044         1.068813
 C        -0.091457        -0.312292        -0.016539
 O         0.575281        -0.880162         2.186190
 H         2.168395        -1.144812        -1.481526
 H         3.787712        -1.422455        -0.812365
 H         2.467685        -2.524705        -0.326383
 H         4.453926         0.645133         0.179035
 H         3.211541         2.418138         1.814497
 H         0.644790         1.965035         1.795493
 H         0.374454        -0.148003        -0.950039
 H        -0.462668        -1.316784        -0.206786
 H        -1.005035         0.191460         0.216910
 H         1.297271        -1.009336         2.773348
