19
Iteration:  4082charge 0 multiplicity 1
 C         2.596271        -1.715021        -0.434875
 C         2.493659        -0.582069         0.455943
 O         3.477805        -0.582951         1.568806
 C         3.480774         0.559769         0.717304
 C         2.671120         1.537443         1.395985
 C         1.436130         1.238405         1.551834
 C         1.092631        -0.248985         0.971759
 C        -0.030860        -0.126634        -0.134245
 O         0.645481        -1.056274         2.038162
 H         1.684654        -2.409655        -0.613928
 H         3.033025        -1.584510        -1.420735
 H         3.261401        -2.479942        -0.003576
 H         4.396718         0.841278         0.159811
 H         2.972260         2.546038         1.732091
 H         0.747626         1.826019         2.181938
 H         0.170816         0.840548        -0.615984
 H         0.202998        -1.003773        -0.788548
 H        -1.132424        -0.195410         0.134211
 H         1.379569        -0.970091         2.733318
