19
Iteration:  2238
 C         2.501701        -1.641363        -0.581305
 C         2.491128        -0.636231         0.563114
 O         3.311953        -0.783799         1.729421
 C         3.467499         0.441818         0.832784
 C         2.748370         1.556718         1.513033
 C         1.445096         1.314627         1.568667
 C         1.131088        -0.134357         0.988487
 C         0.325209        -0.042159        -0.310264
 O         0.506671        -1.039592         1.898750
 H         1.584984        -2.258552        -0.518904
 H         2.665517        -1.081946        -1.526605
 H         3.408389        -2.298088        -0.398314
 H         4.464282         0.630363         0.437758
 H         3.205048         2.461609         1.933312
 H         0.695457         1.931246         2.087404
 H         0.675045         0.249557        -1.312138
 H        -0.287696        -0.990133        -0.390051
 H        -0.584602         0.642862        -0.195456
 H         1.312900        -1.290385         2.439581
