19
Iteration:  2229
 C         2.563221        -1.622362        -0.625962
 C         2.502571        -0.669113         0.524928
 O         3.290397        -0.730342         1.717685
 C         3.487131         0.397719         0.888286
 C         2.726107         1.521543         1.521403
 C         1.397260         1.220325         1.610420
 C         1.206264        -0.063270         0.938269
 C         0.227876        -0.093637        -0.270210
 O         0.516736        -0.953559         1.906890
 H         1.660844        -2.286541        -0.779786
 H         2.831106        -1.130503        -1.591635
 H         3.384429        -2.263897        -0.365105
 H         4.396918         0.399067         0.245789
 H         3.312518         2.348284         1.894736
 H         0.574547         1.891659         1.940685
 H         0.776510         0.186599        -1.216673
 H        -0.354664        -1.054679        -0.315265
 H        -0.360911         0.795205        -0.055106
 H         1.096394        -1.102726         2.705670
