19
Iteration:  3346
 C         2.837225        -1.593772        -0.722015
 C         2.543719        -0.698944         0.454306
 O         3.496574        -0.731006         1.647971
 C         3.383589         0.438395         0.750290
 C         2.699677         1.586710         1.380161
 C         1.418539         1.216134         1.487259
 C         1.129432        -0.230952         1.005972
 C        -0.084633        -0.092701        -0.055494
 O         0.466342        -0.925418         2.202830
 H         3.846750        -1.509947        -1.050156
 H         2.586987        -2.651543        -0.621949
 H         2.310677        -1.214989        -1.548220
 H         4.286949         0.647223         0.108939
 H         3.129106         2.522551         1.692990
 H         0.477937         1.693400         1.743340
 H         0.267372         0.498425        -0.869650
 H        -0.210080        -1.123254        -0.375563
 H        -0.951775         0.288678         0.493220
 H         1.280210        -1.013808         2.715185
