19
Iteration:  2612charge 0 multiplicity 1
 C         2.570571        -1.745461        -0.485615
 C         2.512838        -0.644358         0.642305
 O         3.369810        -0.728041         1.756354
 C         3.524412         0.432011         0.804789
 C         2.709765         1.606481         1.406929
 C         1.426995         1.243845         1.591732
 C         1.177667        -0.088784         0.964324
 C         0.186469         0.073320        -0.256990
 O         0.461267        -1.085614         1.804071
 H         2.451988        -1.217163        -1.383702
 H         3.491593        -2.311860        -0.621978
 H         1.722347        -2.490558        -0.401853
 H         4.470483         0.463613         0.266165
 H         3.230463         2.533440         1.635523
 H         0.723712         1.795076         2.291974
 H         0.366246         0.976811        -0.873640
 H         0.189201        -0.695896        -1.037323
 H        -0.807755         0.039851         0.194501
 H         1.119744        -1.465826         2.454561
