19
Iteration:  4006charge 0 multiplicity 1
 C         2.682313        -1.592463        -0.613429
 C         2.521216        -0.668946         0.579348
 O         3.410977        -0.712271         1.743954
 C         3.474095         0.453808         0.729440
 C         2.688031         1.663787         1.229280
 C         1.394309         1.263448         1.546983
 C         1.072167        -0.128545         1.057053
 C         0.008769        -0.210041        -0.065791
 O         0.642101        -1.049585         1.964006
 H         2.855767        -2.735231        -0.410814
 H         1.884394        -1.550106        -1.322020
 H         3.402404        -1.187109        -1.288702
 H         4.414985         0.644068         0.283736
 H         3.108003         2.630552         1.537119
 H         0.652429         1.612102         2.221170
 H         0.428428        -0.073627        -1.024028
 H        -0.629681        -1.076165        -0.253630
 H        -0.672265         0.657165         0.160435
 H         1.181008        -0.972343         2.717000
