19
Iteration:  3084
 C         2.641623        -1.564326        -0.623669
 C         2.471560        -0.683186         0.572007
 O         3.462100        -0.885129         1.708076
 C         3.447506         0.419737         0.873488
 C         2.630018         1.661612         1.287571
 C         1.374681         1.311623         1.474444
 C         1.122482        -0.126558         1.026903
 C         0.151685        -0.051304        -0.074206
 O         0.575890        -1.034726         1.955831
 H         1.909299        -1.338798        -1.504317
 H         3.668392        -1.674849        -0.846063
 H         2.393394        -2.539707        -0.234851
 H         4.400532         0.595225         0.371154
 H         3.016089         2.691627         1.435285
 H         0.508038         1.837560         1.810461
 H         0.379725         0.555851        -0.942009
 H         0.085708        -1.020299        -0.511610
 H        -0.784482         0.250621         0.272458
 H         1.304299        -1.122896         2.591357
