19
Iteration:  2384
 C         2.508783        -1.582415        -0.578454
 C         2.534470        -0.637709         0.539959
 O         3.353024        -0.828165         1.778701
 C         3.515840         0.393124         0.950886
 C         2.704155         1.493013         1.500629
 C         1.358909         1.246592         1.518722
 C         1.167533        -0.106394         0.847791
 C         0.242248        -0.032190        -0.285502
 O         0.536548        -0.947329         1.873496
 H         1.683283        -2.237339        -0.304697
 H         2.252509        -1.036876        -1.452489
 H         3.463148        -2.060980        -0.545940
 H         4.482062         0.597517         0.531496
 H         3.338535         2.276707         1.961075
 H         0.679522         1.805866         2.101591
 H         0.691270         0.277160        -1.224560
 H        -0.091789        -1.008495        -0.512049
 H        -0.656685         0.496588        -0.155372
 H         1.102580        -0.860630         2.735211
