19
Iteration:  4828charge 0 multiplicity 1
 C         2.602813        -1.524787        -0.676065
 C         2.522167        -0.604788         0.468627
 O         3.272509        -0.747876         1.742563
 C         3.536832         0.340140         0.852947
 C         2.690163         1.475048         1.461792
 C         1.382375         1.319589         1.364162
 C         1.083394        -0.126330         0.865043
 C         0.020298        -0.410001        -0.124172
 O         0.778365        -0.737348         2.154926
 H         3.390120        -2.267690        -0.664462
 H         1.603128        -1.962966        -0.902556
 H         2.699537        -1.063841        -1.721725
 H         4.544535         0.434216         0.460810
 H         3.110547         2.183161         2.254646
 H         0.560402         1.950933         1.737508
 H         0.417437         0.072082        -1.007234
 H        -0.161472        -1.500845        -0.205768
 H        -0.974087         0.034196        -0.083937
 H         1.504362        -0.601093         2.730114
