19
Iteration:   568charge 0 multiplicity 1
 C         2.739641        -1.719241        -0.532094
 C         2.451411        -0.664537         0.462602
 O         3.406386        -0.883767         1.678841
 C         3.447738         0.319429         0.936966
 C         2.801658         1.459365         1.583054
 C         1.455983         1.243039         1.447942
 C         1.052371        -0.058135         0.883085
 C         0.000697         0.028933        -0.283750
 O         0.499583        -0.778078         1.973079
 H         2.048663        -2.592828        -0.682486
 H         3.067943        -1.288363        -1.563153
 H         3.709094        -2.065757        -0.204250
 H         4.388404         0.426836         0.437092
 H         3.366914         2.297436         2.104540
 H         0.836396         1.938123         2.045178
 H        -0.561514        -0.928544        -0.353021
 H        -0.770428         0.844811        -0.092154
 H         0.483478         0.401781        -1.252413
 H         1.097524        -0.619825         2.654354
