19
Iteration:   679charge 0 multiplicity 1
 C         2.705929        -1.918659        -0.406023
 C         2.554545        -0.619112         0.551168
 O         3.463514        -0.915820         1.536058
 C         3.446354         0.430063         0.764617
 C         2.701401         1.489221         1.571904
 C         1.386562         1.199753         1.698800
 C         1.050830        -0.036720         0.896007
 C         0.194097         0.143329        -0.375106
 O         0.376634        -0.724267         1.939703
 H         2.249276        -2.703288         0.276830
 H         2.278360        -1.986284        -1.436744
 H         3.835251        -2.064737        -0.372197
 H         4.455867         0.457670         0.331395
 H         3.326895         2.254099         1.889625
 H         0.586022         1.650828         2.231984
 H         0.504086        -0.636717        -1.143477
 H        -0.888498         0.029247        -0.142121
 H         0.334120         1.159974        -0.800343
 H         0.954867        -1.034133         2.629321
