19
Iteration:  2743charge 0 multiplicity 1
 C         2.716340        -1.634383        -0.703438
 C         2.578551        -0.641108         0.489137
 O         3.280228        -0.817928         1.766161
 C         3.491935         0.359768         1.059043
 C         2.704184         1.553991         1.470207
 C         1.406549         1.290735         1.395039
 C         1.120101        -0.151102         0.867256
 C        -0.037510        -0.070646        -0.213264
 O         0.634517        -0.883716         2.060519
 H         3.401151        -2.416810        -0.670415
 H         1.796716        -2.074413        -1.124518
 H         3.112552        -1.026605        -1.586658
 H         4.558212         0.416658         0.706999
 H         3.171119         2.432684         1.920994
 H         0.710310         2.083455         1.640309
 H         0.031851         0.764173        -0.921127
 H         0.026213        -1.043306        -0.700871
 H        -1.098830        -0.081657         0.175248
 H         1.452671        -1.181327         2.474374
