19
Iteration:  4817charge 0 multiplicity 1
 C         2.548300        -1.497709        -0.714001
 C         2.509070        -0.588791         0.488462
 O         3.258706        -0.818306         1.714700
 C         3.590617         0.346583         0.938659
 C         2.705231         1.546605         1.428638
 C         1.344577         1.298339         1.349094
 C         1.144158        -0.049407         0.924090
 C         0.034798        -0.445775        -0.137534
 O         0.748080        -0.757001         2.116821
 H         3.414000        -2.160164        -0.620107
 H         1.690144        -2.216960        -0.643590
 H         2.662723        -0.725526        -1.551974
 H         4.564941         0.344521         0.469508
 H         3.191784         2.427058         1.992872
 H         0.555182         2.000404         1.676166
 H         0.291469        -0.403997        -1.171599
 H        -0.163880        -1.546196        -0.062752
 H        -0.865238         0.123499         0.173477
 H         1.591951        -0.814422         2.607097
