19
Iteration:  1193charge 0 multiplicity 1
 C         2.406876        -1.760973        -0.470088
 C         2.499284        -0.628926         0.522687
 O         3.346876        -0.803418         1.776069
 C         3.453547         0.435948         0.892567
 C         2.767814         1.594679         1.500167
 C         1.415823         1.338651         1.512411
 C         1.178131        -0.010635         0.905879
 C         0.217374         0.132657        -0.246606
 O         0.669424        -1.195440         1.760781
 H         1.667616        -2.478981         0.023079
 H         1.846341        -1.298110        -1.386035
 H         3.310706        -2.266473        -0.675400
 H         4.480057         0.512828         0.457483
 H         3.205835         2.434070         2.001331
 H         0.631828         1.795425         2.136052
 H         0.743789         0.586299        -1.163008
 H        -0.309317        -0.921161        -0.361105
 H        -0.710489         0.853827        -0.078428
 H         1.175705        -1.323768         2.545758
