19
Iteration:   755
 C         2.663749        -1.648512        -0.624566
 C         2.506700        -0.657505         0.522543
 O         3.134372        -0.931284         1.861837
 C         3.500739         0.239198         1.080461
 C         2.819674         1.622097         1.383056
 C         1.498952         1.340507         1.276463
 C         1.107502        -0.081147         0.886779
 C         0.056459         0.078860        -0.143266
 O         0.639991        -0.961143         1.926251
 H         1.717164        -2.265884        -0.598467
 H         2.928255        -1.161607        -1.592499
 H         3.587997        -2.319967        -0.427385
 H         4.554964         0.357109         0.684539
 H         3.246023         2.630581         1.551934
 H         0.742487         2.182070         1.344269
 H         0.001398        -0.585616        -1.068423
 H        -0.953291        -0.082789         0.342316
 H         0.031721         1.164794        -0.441569
 H         1.464653        -1.236759         2.523798
