19
Iteration:  4408charge 0 multiplicity 1
 C         2.763920        -1.800573        -0.445250
 C         2.497996        -0.591648         0.499455
 O         3.490127        -0.673310         1.602621
 C         3.420704         0.502252         0.689083
 C         2.639776         1.683592         1.244124
 C         1.382789         1.289189         1.494157
 C         1.062237        -0.126682         1.009504
 C        -0.115175         0.008750         0.081615
 O         0.706560        -1.175395         1.934310
 H         2.931499        -1.513905        -1.526648
 H         3.482023        -2.603106        -0.101264
 H         1.853617        -2.494518        -0.562272
 H         4.279029         0.649893         0.008110
 H         2.948963         2.650020         1.585590
 H         0.751428         1.848983         2.155416
 H         0.115598         0.725988        -0.693930
 H        -0.252109        -1.095687        -0.129476
 H        -1.007665         0.333881         0.709635
 H         1.491525        -1.364214         2.581488
