19
Iteration:  1189
 C         2.395095        -1.780845        -0.481617
 C         2.515964        -0.647472         0.536451
 O         3.294881        -0.772781         1.767246
 C         3.453871         0.434560         0.898136
 C         2.744414         1.603920         1.504382
 C         1.459856         1.319477         1.521724
 C         1.191279        -0.021573         0.912631
 C         0.184251         0.133681        -0.277953
 O         0.692150        -1.186264         1.757771
 H         1.724769        -2.492743        -0.047492
 H         1.947375        -1.388676        -1.345029
 H         3.356581        -2.287031        -0.698866
 H         4.417894         0.521601         0.450749
 H         3.230336         2.470033         1.939931
 H         0.763790         1.778162         2.234042
 H         0.680929         0.732056        -0.982720
 H        -0.270817        -0.749174        -0.530685
 H        -0.589039         0.678171         0.015288
 H         1.174795        -1.289582         2.691196
