19
Iteration:  4115charge 0 multiplicity 1
 C         2.667027        -1.718940        -0.529375
 C         2.530151        -0.681163         0.555513
 O         3.384920        -0.719637         1.667739
 C         3.374311         0.534427         0.713584
 C         2.659275         1.705808         1.224066
 C         1.384611         1.267233         1.563169
 C         1.158696        -0.153771         1.050315
 C         0.007889        -0.078653         0.036554
 O         0.683855        -1.113675         1.905186
 H         1.689442        -2.023848        -1.220588
 H         3.433123        -1.284521        -1.211949
 H         3.112088        -2.495589         0.105523
 H         4.366239         0.760241         0.196667
 H         2.965376         2.786335         1.213481
 H         0.667188         1.990897         2.026805
 H         0.302009         0.481227        -0.864631
 H        -0.020414        -1.181545        -0.314315
 H        -0.899215         0.263412         0.665556
 H         1.462801        -1.331915         2.368552
