19
Iteration:   928
 C         2.595333        -1.745643        -0.393165
 C         2.532017        -0.570902         0.433617
 O         3.419824        -0.837874         1.647097
 C         3.557085         0.355563         0.881214
 C         2.740423         1.524004         1.539660
 C         1.408847         1.220970         1.567242
 C         1.086415        -0.052631         0.904136
 C         0.085478         0.132039        -0.238418
 O         0.522657        -1.006634         1.784063
 H         1.921284        -2.457225         0.109583
 H         2.162022        -1.646983        -1.361765
 H         3.581833        -2.303645        -0.372096
 H         4.563804         0.527852         0.438781
 H         3.230190         2.292630         2.107148
 H         0.657111         1.738782         2.150006
 H         0.229384         1.206702        -0.609059
 H         0.250991        -0.495000        -1.156446
 H        -0.941959         0.173079         0.177242
 H         0.763788        -0.756251         2.773232
