19
Iteration:  2412charge 0 multiplicity 1
 C         2.799956        -1.711697        -0.594572
 C         2.504603        -0.599961         0.459586
 O         3.257667        -0.873813         1.655413
 C         3.482397         0.377599         0.987782
 C         2.776411         1.570098         1.585230
 C         1.460099         1.411530         1.531350
 C         1.086332        -0.107615         0.855026
 C         0.024759        -0.040729        -0.212373
 O         0.500196        -0.959943         1.951806
 H         1.840555        -2.313130        -0.805648
 H         3.282416        -1.300300        -1.550589
 H         3.532833        -2.330142        -0.054185
 H         4.542326         0.567549         0.644207
 H         3.415479         2.352092         1.947350
 H         0.729665         2.254101         1.681588
 H         0.233781         0.568201        -1.122057
 H        -0.129391        -1.094259        -0.667228
 H        -0.999240         0.378775         0.086088
 H         1.363845        -1.400506         2.282628
