19
Iteration:  1877
 C         2.693904        -1.387070        -0.716851
 C         2.465201        -0.609830         0.528331
 O         3.202622        -1.081406         1.784119
 C         3.497134         0.266906         1.025821
 C         2.776899         1.502484         1.582131
 C         1.445408         1.356644         1.337262
 C         1.164329         0.021542         0.903090
 C         0.069396        -0.264749        -0.202907
 O         0.589089        -0.732297         1.976348
 H         1.792092        -2.029952        -0.831255
 H         2.925181        -0.909045        -1.697955
 H         3.530016        -2.163449        -0.395688
 H         4.437593         0.426886         0.417544
 H         3.221948         2.451527         2.004298
 H         0.598194         2.014641         1.508653
 H         0.608729        -0.155332        -1.155220
 H        -0.160143        -1.313796        -0.122591
 H        -0.831385         0.475417        -0.210849
 H         1.418319        -1.274352         2.341452
