19
Iteration:  1450charge 0 multiplicity 1
 C         2.498165        -1.764317        -0.414900
 C         2.503589        -0.633319         0.524246
 O         3.417037        -0.767244         1.610213
 C         3.461993         0.392007         0.888384
 C         2.759653         1.523207         1.560554
 C         1.434204         1.235920         1.621925
 C         1.146897        -0.107697         0.912679
 C         0.258395         0.178786        -0.349638
 O         0.432040        -1.016267         1.861434
 H         1.958117        -2.561705         0.079330
 H         1.984984        -1.814204        -1.402929
 H         3.462331        -2.081029        -0.567685
 H         4.387351         0.667676         0.269356
 H         3.224597         2.456946         1.852891
 H         0.767245         1.784559         2.247332
 H         0.803263         0.778026        -1.097037
 H         0.140481        -0.822574        -0.747856
 H        -0.634445         0.668354        -0.087547
 H         1.124394        -1.301827         2.484629
