19
Iteration:  1705charge 0 multiplicity 1
 C         2.635630        -1.859255        -0.413808
 C         2.520084        -0.671127         0.578339
 O         3.566844        -0.675607         1.600356
 C         3.439038         0.460286         0.705346
 C         2.743606         1.499178         1.619485
 C         1.442356         1.167432         1.788077
 C         1.123553        -0.099065         0.988093
 C         0.273947         0.045237        -0.365262
 O         0.212169        -0.841494         1.729007
 H         1.904850        -2.602350        -0.089009
 H         2.257575        -1.570453        -1.351666
 H         3.702446        -2.429455        -0.433390
 H         4.321988         0.540025         0.031158
 H         3.299411         2.335042         2.032422
 H         0.890148         1.637432         2.550395
 H         0.633203         0.695302        -1.187229
 H        -0.216974        -0.833386        -0.706423
 H        -0.518993         0.629771         0.199861
 H         0.682683        -1.497389         2.371824
