19
Iteration:   352charge 0 multiplicity 1
 C         2.681200        -1.893637        -0.402932
 C         2.501750        -0.717034         0.585927
 O         3.376145        -0.697282         1.764587
 C         3.477784         0.360008         0.726945
 C         2.815100         1.576680         1.306096
 C         1.603678         1.248134         1.615849
 C         1.128246        -0.130619         0.947580
 C         0.102417         0.281935        -0.164523
 O         0.299139        -1.027014         1.774427
 H         2.160389        -2.774626        -0.074705
 H         2.145366        -1.543520        -1.300695
 H         3.688455        -2.122942        -0.619304
 H         4.415856         0.269725         0.138838
 H         3.398692         2.464350         1.597346
 H         0.882007         1.751587         2.306511
 H         0.053350        -0.489424        -0.902965
 H        -0.850427         0.335854         0.337966
 H         0.369560         1.205627        -0.662108
 H         0.767156        -1.081244         2.669205
