19
Iteration:  3394
 C         2.644351        -1.712365        -0.555659
 C         2.486847        -0.547018         0.419436
 O         3.364339        -0.658297         1.669910
 C         3.465217         0.485124         0.785628
 C         2.740744         1.634149         1.416238
 C         1.452545         1.264011         1.585649
 C         1.087803        -0.138399         0.959722
 C        -0.090899        -0.097540        -0.143694
 O         0.723268        -1.141937         1.996503
 H         3.106527        -1.543541        -1.534654
 H         3.336300        -2.412669        -0.011052
 H         1.648857        -2.291070        -0.737449
 H         4.367181         0.508995         0.220668
 H         3.147342         2.525452         1.933701
 H         0.631762         1.844379         2.052562
 H         0.233151         0.435596        -1.058716
 H        -0.626196        -1.037705        -0.311700
 H        -0.744746         0.572586         0.414860
 H         1.624139        -1.317540         2.258689
