19
Iteration:  2333charge 0 multiplicity 1
 C         2.842732        -1.786332        -0.449709
 C         2.437613        -0.617970         0.524377
 O         3.408450        -0.847119         1.682308
 C         3.458835         0.372864         0.760139
 C         2.690000         1.500028         1.452411
 C         1.411241         1.274541         1.649086
 C         1.104161        -0.100490         1.009895
 C         0.189218         0.163412        -0.174893
 O         0.355505        -0.931101         1.773888
 H         2.931325        -2.612380         0.208482
 H         2.049868        -1.937668        -1.176115
 H         3.880576        -1.498269        -0.896218
 H         4.316785         0.331554         0.120053
 H         3.309982         2.316854         1.862906
 H         0.741647         2.069094         1.972771
 H         0.619735         0.827972        -0.970874
 H        -0.192247        -0.755050        -0.732531
 H        -0.782767         0.622310         0.166361
 H         0.849686        -1.453329         2.386601
