19
Iteration:   230charge 0 multiplicity 1
 C         2.809114        -1.531786        -0.705450
 C         2.495827        -0.735617         0.577131
 O         3.360347        -0.933316         1.754216
 C         3.512618         0.273054         0.864530
 C         2.870907         1.472583         1.467707
 C         1.548689         1.363158         1.332939
 C         1.030220        -0.025747         0.949185
 C        -0.086896        -0.161235        -0.097510
 O         0.377087        -0.755521         2.011625
 H         1.986945        -2.159483        -0.941534
 H         3.082260        -0.967013        -1.545666
 H         3.651575        -2.150818        -0.320238
 H         4.462580         0.341449         0.281179
 H         3.491935         2.234936         1.927661
 H         0.869019         2.170779         1.620092
 H        -0.008446        -1.021646        -0.736356
 H        -0.999734        -0.039935         0.453410
 H         0.020211         0.620618        -0.795192
 H         1.032983        -0.729630         2.644135
