19
Iteration:   727charge 0 multiplicity 1
 C         2.645082        -1.614638        -0.538056
 C         2.643203        -0.691603         0.620342
 O         3.246634        -0.944179         1.862046
 C         3.588314         0.274317         0.931558
 C         2.790615         1.554948         1.254160
 C         1.518102         1.296199         1.502035
 C         1.101208        -0.042463         0.932088
 C         0.063630         0.043807        -0.232608
 O         0.406658        -0.915528         1.845632
 H         1.997314        -2.423532        -0.318800
 H         2.213657        -0.993171        -1.318364
 H         3.651720        -1.850468        -0.828553
 H         4.560624         0.501069         0.523065
 H         3.285209         2.549460         1.369052
 H         0.816068         2.053779         1.913868
 H         0.328037        -0.460871        -1.106260
 H        -0.881501        -0.328198         0.075893
 H        -0.093633         1.065772        -0.473561
 H         1.025583        -1.082235         2.709347
