19
Iteration:  2000charge 0 multiplicity 1
 C         2.437087        -1.818547        -0.406391
 C         2.567867        -0.674509         0.615678
 O         3.455272        -0.725540         1.684030
 C         3.400134         0.528586         0.804667
 C         2.745614         1.624374         1.486186
 C         1.462008         1.144860         1.637397
 C         1.180595        -0.146297         0.942815
 C         0.235606         0.165030        -0.277870
 O         0.462624        -1.085099         1.703059
 H         1.794700        -2.486496         0.233992
 H         1.898146        -1.518772        -1.333691
 H         3.326811        -2.428260        -0.770327
 H         4.360378         0.564296         0.359857
 H         3.260422         2.474399         1.921718
 H         0.750716         1.680443         2.259971
 H         0.707643         1.098654        -0.665535
 H         0.263574        -0.699626        -0.975813
 H        -0.716223         0.549589         0.119690
 H         0.884718        -1.016396         2.517053
