19
Iteration:  1686
 C         2.569750        -1.684287        -0.500221
 C         2.493756        -0.726364         0.660443
 O         3.545645        -0.731182         1.710822
 C         3.469985         0.403806         0.777500
 C         2.758278         1.555168         1.397899
 C         1.500390         1.144205         1.695223
 C         1.065009        -0.121449         0.993182
 C         0.291578         0.123279        -0.294295
 O         0.209128        -0.944373         1.812415
 H         1.993082        -2.607112        -0.317096
 H         2.245199        -1.127757        -1.389457
 H         3.606815        -2.067684        -0.409519
 H         4.370406         0.599653         0.149135
 H         3.388572         2.390932         1.782343
 H         0.781881         1.676157         2.273645
 H         0.842493         0.672896        -1.098992
 H         0.423371        -0.849810        -0.797147
 H        -0.806885         0.305971        -0.239096
 H         0.847321        -1.380836         2.418849
