19
Iteration:  3180
 C         2.545164        -1.751356        -0.603826
 C         2.465079        -0.670083         0.497099
 O         3.623652        -0.616524         1.623319
 C         3.394461         0.472313         0.768502
 C         2.648459         1.597700         1.489898
 C         1.353010         1.281722         1.589803
 C         1.076141        -0.169188         0.974820
 C         0.153544        -0.135414        -0.221438
 O         0.576649        -0.983364         2.057946
 H         3.131628        -1.497829        -1.583201
 H         2.922810        -2.554427        -0.046068
 H         1.546245        -1.993972        -0.945538
 H         4.255288         0.585374         0.142888
 H         3.265989         2.357615         2.021789
 H         0.589801         1.742200         2.183492
 H         0.510799         0.713492        -0.915650
 H        -0.059672        -0.926436        -0.971388
 H        -0.811826         0.191311         0.201022
 H         1.380789        -1.387777         2.575671
