19
Iteration:   264charge 0 multiplicity 1
 C         2.464051        -1.543677        -0.682175
 C         2.489782        -0.637248         0.538759
 O         3.275491        -0.959204         1.767151
 C         3.535294         0.305217         0.955828
 C         2.796391         1.555479         1.355536
 C         1.474706         1.326006         1.443009
 C         1.091102        -0.057383         0.973009
 C         0.252770        -0.139475        -0.226844
 O         0.514189        -0.800988         2.039142
 H         1.920209        -2.414509        -0.416410
 H         2.125515        -1.182872        -1.619623
 H         3.455896        -1.973870        -0.878186
 H         4.599923         0.282793         0.546003
 H         3.346872         2.386852         1.678769
 H         0.829413         2.060753         1.856748
 H         0.015413        -1.160166        -0.356839
 H        -0.694070         0.357334        -0.255851
 H         0.833505         0.397099        -0.921792
 H         1.237514        -1.162655         2.686840
