19
Iteration:  4723charge 0 multiplicity 1
 C         2.675866        -1.769492        -0.475837
 C         2.466826        -0.586444         0.399149
 O         3.394616        -0.729460         1.565879
 C         3.467911         0.434452         0.796014
 C         2.704399         1.621233         1.386665
 C         1.417506         1.304753         1.551328
 C         1.065013        -0.110356         1.046025
 C         0.068284        -0.110682        -0.080139
 O         0.593287        -0.979435         1.999133
 H         3.635289        -1.844607        -0.931399
 H         2.738194        -2.599271         0.215865
 H         1.965252        -1.854050        -1.270472
 H         4.431533         0.618641         0.281126
 H         3.307186         2.541473         1.543261
 H         0.612256         1.928867         1.946054
 H         0.149911         0.646790        -0.902947
 H         0.131517        -0.970781        -0.745072
 H        -0.983664        -0.092569         0.283761
 H         1.375754        -1.294670         2.558778
