19
Iteration:  2452
 C         2.955333        -1.593619        -0.648126
 C         2.523411        -0.816025         0.504524
 O         3.185908        -0.889140         1.827240
 C         3.431365         0.384746         0.964545
 C         2.772662         1.516706         1.461294
 C         1.439173         1.249266         1.401482
 C         1.156533        -0.119589         0.827181
 C        -0.138055         0.077665        -0.184391
 O         0.585179        -0.854522         1.954015
 H         2.148627        -1.823010        -1.271540
 H         3.560592        -0.939949        -1.266688
 H         3.528350        -2.507587        -0.301151
 H         4.425349         0.362660         0.492261
 H         3.427430         2.325108         1.818155
 H         0.537413         1.848800         1.799630
 H         0.044183         0.963979        -0.729966
 H        -0.457241        -0.766882        -0.782018
 H        -0.816654         0.130390         0.654945
 H         1.134426        -0.957118         2.668263
