19
Iteration:  3789charge 0 multiplicity 1
 C         2.539861        -1.625087        -0.566555
 C         2.545628        -0.621874         0.523138
 O         3.538144        -0.696514         1.612388
 C         3.509203         0.494442         0.745426
 C         2.572309         1.629085         1.292945
 C         1.326736         1.210062         1.595578
 C         1.121023        -0.182376         1.018042
 C         0.112340        -0.161626        -0.161519
 O         0.630296        -1.036577         2.109852
 H         1.482836        -2.092702        -0.763670
 H         2.578907        -1.236986        -1.565436
 H         3.252675        -2.399588        -0.294840
 H         4.318636         0.857081         0.175451
 H         3.024775         2.617387         1.394214
 H         0.477003         1.663980         2.152956
 H         0.617811         0.622264        -0.712952
 H        -0.144240        -1.092956        -0.753179
 H        -0.839024         0.266484         0.339315
 H         1.380945        -1.254442         2.610357
