19
Iteration:  4312charge 0 multiplicity 1
 C         2.596637        -1.725171        -0.560186
 C         2.556615        -0.555950         0.491377
 O         3.527044        -0.684104         1.527295
 C         3.463731         0.552671         0.758090
 C         2.614721         1.637525         1.395889
 C         1.403083         1.217168         1.544604
 C         1.090678        -0.188829         1.015653
 C         0.034495        -0.270056        -0.163047
 O         0.585686        -0.945470         2.101954
 H         1.596912        -1.764667        -1.001902
 H         3.362354        -1.695015        -1.328082
 H         2.904587        -2.605669        -0.076481
 H         4.385469         0.788528         0.221663
 H         3.031621         2.529142         1.913595
 H         0.608531         1.667614         2.150075
 H         0.517256         0.342986        -0.915191
 H        -0.421255        -1.258293        -0.274769
 H        -0.778094         0.219785         0.399287
 H         1.435670        -1.020131         2.549163
