19
Iteration:  3420charge 0 multiplicity 1
 C         2.400594        -1.715201        -0.479649
 C         2.622327        -0.619342         0.501757
 O         3.450106        -0.681568         1.661277
 C         3.478573         0.535996         0.762742
 C         2.621214         1.610001         1.443157
 C         1.342132         1.216959         1.561993
 C         1.198428        -0.105150         0.946489
 C         0.116011        -0.080540        -0.101704
 O         0.701845        -1.108053         1.877865
 H         2.079566        -1.273372        -1.535469
 H         3.319949        -2.271573        -0.701788
 H         1.618368        -2.371296        -0.090319
 H         4.482718         0.635704         0.282670
 H         2.995742         2.529362         1.849487
 H         0.437781         1.733927         1.873590
 H         0.397069         0.516338        -1.024666
 H        -0.138349        -1.140852        -0.298895
 H        -0.784886         0.333250         0.387235
 H         1.382331        -1.036374         2.509764
