19
Iteration:  3656
 C         2.641215        -1.565116        -0.650784
 C         2.459074        -0.623628         0.483807
 O         3.451198        -0.795614         1.675872
 C         3.387100         0.433244         0.752622
 C         2.645005         1.639720         1.362189
 C         1.358973         1.275307         1.564158
 C         1.111378        -0.140494         0.983793
 C         0.096187        -0.180660        -0.071406
 O         0.671200        -0.982330         2.090547
 H         3.524357        -2.277422        -0.462008
 H         1.805630        -2.215795        -0.885772
 H         2.742499        -0.966433        -1.625325
 H         4.279527         0.615087         0.061638
 H         3.154783         2.619392         1.588145
 H         0.648559         1.890516         2.097665
 H         0.490353         0.114046        -1.120338
 H        -0.051574        -1.272196        -0.146369
 H        -0.857411         0.298145         0.078800
 H         1.480089        -1.283767         2.564731
