19
Iteration:  2360charge 0 multiplicity 1
 C         2.567947        -1.719373        -0.622469
 C         2.522930        -0.670780         0.575648
 O         3.403980        -0.788905         1.742766
 C         3.556539         0.453190         0.967304
 C         2.746892         1.602770         1.529182
 C         1.424823         1.192048         1.528245
 C         1.103515        -0.181882         0.952845
 C         0.224095         0.099619        -0.342068
 O         0.412649        -0.998344         1.916750
 H         2.234581        -2.711740        -0.198233
 H         1.747108        -1.355784        -1.241511
 H         3.507406        -1.732316        -1.081111
 H         4.464818         0.477601         0.320703
 H         3.127107         2.616887         1.668732
 H         0.697717         1.839244         2.013444
 H         0.909346         0.342316        -1.145972
 H        -0.155081        -0.826908        -0.792118
 H        -0.655341         0.706004        -0.397313
 H         0.856616        -0.937933         2.743545
