19
Iteration:  1462
 C         2.520051        -1.856582        -0.341802
 C         2.494115        -0.612116         0.511768
 O         3.399569        -0.815395         1.641425
 C         3.533014         0.450608         0.820171
 C         2.713499         1.536597         1.581104
 C         1.432474         1.192265         1.616726
 C         1.105007        -0.041285         0.866610
 C         0.168175         0.174462        -0.361031
 O         0.539841        -0.959932         1.834451
 H         1.896619        -2.604510         0.119859
 H         2.136277        -1.470738        -1.304848
 H         3.468573        -2.208016        -0.409605
 H         4.571240         0.450103         0.380539
 H         3.120419         2.174012         2.339949
 H         0.639611         1.611103         2.160802
 H         0.692304         0.848384        -1.040771
 H        -0.313557        -0.647549        -0.904924
 H        -0.648574         0.720968        -0.027284
 H         1.372168        -1.460173         2.241921
