19
Iteration:  4247charge 0 multiplicity 1
 C         2.815773        -1.606280        -0.671072
 C         2.524043        -0.653767         0.532256
 O         3.352218        -0.825875         1.651110
 C         3.483544         0.468457         0.827131
 C         2.566899         1.654099         1.218985
 C         1.343752         1.280694         1.479859
 C         1.117426        -0.129182         0.958615
 C        -0.092424        -0.157211         0.009350
 O         0.767685        -1.010283         2.108640
 H         2.147222        -1.329230        -1.532961
 H         3.920839        -1.699034        -0.697374
 H         2.426491        -2.570244        -0.345340
 H         4.524795         0.687442         0.486919
 H         3.036391         2.656370         1.290803
 H         0.479446         1.897177         1.728735
 H        -0.154696         0.690229        -0.708868
 H        -0.480627        -1.151610        -0.333681
 H        -1.001585         0.167784         0.609501
 H         1.642213        -1.122959         2.584528
