19
Iteration:   266
 C         2.467727        -1.579180        -0.686749
 C         2.503867        -0.626255         0.525485
 O         3.261412        -0.946301         1.781368
 C         3.530872         0.309914         0.942556
 C         2.775507         1.539734         1.366880
 C         1.481311         1.326575         1.440324
 C         1.094789        -0.067210         0.965537
 C         0.260805        -0.108647        -0.216993
 O         0.535089        -0.805472         2.049507
 H         1.909966        -2.468189        -0.367021
 H         2.057310        -1.172822        -1.642746
 H         3.415756        -1.962953        -0.998485
 H         4.574421         0.278194         0.541232
 H         3.298827         2.404471         1.745027
 H         0.763535         2.045719         1.863273
 H         0.021708        -1.159081        -0.341658
 H        -0.677044         0.430333        -0.285780
 H         0.906991         0.364386        -0.982797
 H         1.161975        -1.136249         2.637713
