19
Iteration:  3704
 C         2.612764        -1.790758        -0.594268
 C         2.542333        -0.595456         0.390446
 O         3.423059        -0.682423         1.607747
 C         3.407084         0.549220         0.853895
 C         2.647623         1.600850         1.468811
 C         1.369115         1.238693         1.499568
 C         1.146679        -0.149226         0.930517
 C        -0.016706        -0.141876        -0.011450
 O         0.773805        -0.989838         1.965956
 H         2.672719        -2.632538         0.205338
 H         1.597964        -1.901630        -1.129677
 H         3.278721        -1.770369        -1.450428
 H         4.304183         0.895997         0.435414
 H         3.134630         2.390108         1.997601
 H         0.511486         1.813547         1.906727
 H         0.129253         0.370018        -0.930881
 H        -0.457677        -1.124994        -0.301844
 H        -0.830454         0.465127         0.519502
 H         1.575301        -1.148777         2.610286
