19
Iteration:  2938
 C         2.689185        -1.635782        -0.556582
 C         2.436873        -0.570560         0.456599
 O         3.400470        -0.721743         1.589076
 C         3.531929         0.450109         0.810956
 C         2.707048         1.551250         1.468297
 C         1.392811         1.223369         1.535708
 C         1.113191        -0.083778         1.039851
 C         0.139461        -0.104739        -0.129096
 O         0.481662        -1.041585         2.007264
 H         2.713846        -1.281179        -1.554987
 H         3.774574        -2.072960        -0.425000
 H         2.070720        -2.596409        -0.378731
 H         4.370333         0.523065         0.047305
 H         3.133155         2.577501         1.531413
 H         0.518458         1.754040         1.929493
 H         0.212258         0.726549        -0.821776
 H         0.306917        -0.973770        -0.785377
 H        -0.935750        -0.184582         0.205288
 H         1.153514        -1.081343         2.703913
