19
Iteration:  4897charge 0 multiplicity 1
 C         2.724671        -1.739338        -0.478483
 C         2.495494        -0.715449         0.592787
 O         3.412819        -0.576506         1.727203
 C         3.430048         0.410001         0.710327
 C         2.740962         1.671952         1.226048
 C         1.517093         1.186723         1.547918
 C         1.080332        -0.202603         0.940175
 C         0.013212         0.014958        -0.042170
 O         0.536365        -1.108167         1.948615
 H         3.819954        -2.001571        -0.667626
 H         1.947261        -2.626308        -0.529852
 H         2.255024        -1.137045        -1.311440
 H         4.370417         0.460866         0.116668
 H         3.301854         2.533964         1.459087
 H         0.744405         1.892695         1.844072
 H         0.272862         0.762053        -0.857672
 H        -0.485230        -0.819364        -0.546964
 H        -0.917515         0.378211         0.439574
 H         1.048148        -0.874715         2.782871
