19
Iteration:  4211
 C         2.562197        -1.570183        -0.670726
 C         2.517745        -0.623176         0.540919
 O         3.431694        -0.616043         1.587458
 C         3.490979         0.516752         0.736267
 C         2.710388         1.583125         1.449363
 C         1.402629         1.312678         1.458864
 C         1.116114        -0.200950         1.018610
 C         0.002037        -0.367285        -0.161861
 O         0.639369        -0.988981         2.202959
 H         2.692170        -1.191354        -1.658924
 H         3.392202        -2.189459        -0.638988
 H         1.756549        -2.228746        -0.557280
 H         4.469826         0.515608         0.171948
 H         3.106426         2.474385         1.874996
 H         0.529925         1.929639         1.645174
 H         0.161081         0.317405        -0.941878
 H         0.092394        -1.266190        -0.743017
 H        -0.852077        -0.255087         0.477411
 H         1.453947        -1.096250         2.771670
