19
Iteration:  3690
 C         2.466837        -1.726036        -0.556385
 C         2.528467        -0.519252         0.388479
 O         3.377244        -0.689850         1.596878
 C         3.537073         0.515888         0.818410
 C         2.622253         1.621709         1.554375
 C         1.346915         1.273683         1.441483
 C         1.145878        -0.132347         0.895558
 C         0.027288        -0.152018        -0.114023
 O         0.801390        -1.095078         2.110103
 H         2.931659        -2.777084        -0.159128
 H         1.443832        -1.905775        -0.912718
 H         3.232440        -1.654947        -1.421733
 H         4.538390         0.617152         0.311319
 H         3.001911         2.575296         1.895759
 H         0.503468         1.804121         1.869570
 H         0.435141         0.384348        -1.059382
 H        -0.132927        -1.249292        -0.263731
 H        -0.933799         0.316350         0.209729
 H         1.592674        -0.993168         2.583023
