19
Iteration:  2678charge 0 multiplicity 1
 C         2.757850        -1.670859        -0.684661
 C         2.469482        -0.622898         0.394208
 O         3.383935        -0.762368         1.792473
 C         3.492278         0.344366         0.912813
 C         2.716097         1.494024         1.514101
 C         1.404174         1.221225         1.564659
 C         1.098693        -0.071858         0.922817
 C         0.097215        -0.063572        -0.258592
 O         0.496443        -0.856379         1.968615
 H         3.612541        -1.333690        -1.120712
 H         3.000251        -2.557561        -0.127838
 H         1.868224        -1.765187        -1.346000
 H         4.362745         0.568487         0.240334
 H         3.184512         2.325358         2.020929
 H         0.534695         1.718058         2.052882
 H         0.447537        -0.008171        -1.290113
 H        -0.416396        -0.969704         0.058107
 H        -0.747881         0.619927        -0.049211
 H         1.198270        -1.125026         2.500861
