19
Iteration:  4954
 C         2.501441        -1.926277        -0.287408
 C         2.470873        -0.631344         0.518618
 O         3.627627        -0.669782         1.435026
 C         3.435733         0.552770         0.697610
 C         2.637884         1.602796         1.579468
 C         1.341611         1.284911         1.539922
 C         1.112158        -0.147325         1.000926
 C         0.214221         0.024867        -0.246984
 O         0.523091        -1.019582         2.004801
 H         3.406025        -1.992146        -1.010978
 H         2.630844        -2.715456         0.536436
 H         1.705331        -2.207305        -1.012942
 H         4.163760         0.788903        -0.047260
 H         3.063591         2.631734         1.806739
 H         0.444421         1.817427         1.948653
 H         0.664957         0.510327        -1.158079
 H        -0.147258        -0.996348        -0.499054
 H        -0.532809         0.834643         0.021917
 H         1.189807        -1.627116         2.248274
