19
Iteration:  2762charge 0 multiplicity 1
 C         2.735601        -1.628598        -0.639047
 C         2.501873        -0.601839         0.441292
 O         3.232967        -0.865035         1.690560
 C         3.512562         0.456917         0.877510
 C         2.734952         1.534127         1.656438
 C         1.423139         1.273711         1.435003
 C         1.096926        -0.078627         0.856916
 C         0.059782        -0.216104        -0.243624
 O         0.608505        -0.827033         2.059389
 H         3.141297        -2.529308        -0.028360
 H         1.761683        -1.981426        -1.024621
 H         3.426920        -1.571505        -1.537158
 H         4.467586         0.558528         0.419034
 H         3.325788         2.286221         2.142775
 H         0.669078         1.794257         2.076344
 H        -0.144069         0.764790        -0.772761
 H         0.107349        -0.908735        -1.091130
 H        -0.935701        -0.191150         0.207281
 H         1.495994        -0.886091         2.496551
