19
Iteration:   305
 C         2.704223        -1.863366        -0.399298
 C         2.474407        -0.631191         0.446157
 O         3.334008        -0.897356         1.691019
 C         3.514081         0.330256         0.871067
 C         2.782875         1.492375         1.494365
 C         1.478216         1.269096         1.466064
 C         1.058553        -0.026435         0.882662
 C        -0.047896         0.241173        -0.213305
 O         0.582662        -0.893349         1.892163
 H         2.562479        -2.714322         0.276055
 H         2.011924        -1.979587        -1.204819
 H         3.789483        -1.894738        -0.746452
 H         4.471922         0.461759         0.316344
 H         3.255157         2.257226         2.077286
 H         0.757952         1.833695         1.986323
 H        -0.598404        -0.680623        -0.517612
 H        -0.783574         1.009532         0.096434
 H         0.476057         0.613173        -1.108994
 H         1.375375        -0.866612         2.415523
