19
Iteration:   483
 C         2.853399        -1.509659        -0.634502
 C         2.521368        -0.713871         0.560580
 O         3.101177        -1.044284         1.793100
 C         3.435283         0.264036         1.060237
 C         2.821838         1.587913         1.290862
 C         1.463464         1.302845         1.302580
 C         1.117363        -0.129770         0.899153
 C        -0.008795         0.056925        -0.166246
 O         0.612253        -0.824430         2.063174
 H         2.427385        -2.506595        -0.616311
 H         2.585122        -0.997271        -1.589507
 H         3.890665        -1.596780        -0.586585
 H         4.372846         0.081074         0.608626
 H         3.147677         2.579443         1.609459
 H         0.620753         1.985385         1.514680
 H        -0.573536        -0.815236        -0.449144
 H        -0.641577         0.833973         0.188796
 H         0.425450         0.416514        -1.090128
 H         1.436257        -1.256977         2.466180
