19
Iteration:  1991
 C         2.451170        -1.813155        -0.391707
 C         2.487805        -0.654025         0.562567
 O         3.435589        -0.756035         1.662009
 C         3.465497         0.510247         0.776506
 C         2.721242         1.604155         1.554716
 C         1.497255         1.169130         1.639517
 C         1.147174        -0.097602         0.860728
 C         0.289345         0.116392        -0.244159
 O         0.486661        -1.017812         1.728292
 H         1.887946        -2.669134         0.126575
 H         1.816315        -1.792777        -1.317116
 H         3.463640        -2.158888        -0.559080
 H         4.457557         0.617000         0.382058
 H         3.036122         2.461576         2.175998
 H         0.741047         1.516852         2.318847
 H         0.374811         1.047212        -0.851373
 H         0.252160        -0.723488        -1.009267
 H        -0.681194         0.144806         0.279879
 H         0.749023        -0.948120         2.597458
