19
Iteration:   416charge 0 multiplicity 1
 C         2.505010        -1.802130        -0.468564
 C         2.509693        -0.622475         0.506802
 O         3.429925        -0.768151         1.640057
 C         3.535214         0.398086         0.831359
 C         2.739631         1.498881         1.579941
 C         1.451284         1.243387         1.556870
 C         1.101796        -0.023323         0.935155
 C         0.200920        -0.017750        -0.276392
 O         0.458910        -0.856623         1.890107
 H         1.529806        -2.265405        -0.562797
 H         2.806306        -1.453397        -1.480529
 H         3.197315        -2.552831        -0.145221
 H         4.391242         0.669419         0.191787
 H         3.243193         2.302063         2.087668
 H         0.670864         1.812749         2.084927
 H        -0.339481        -0.952595        -0.219529
 H        -0.496197         0.817158        -0.286864
 H         0.669263        -0.162090        -1.238739
 H         1.145479        -1.174172         2.601320
