19
Iteration:  1362charge 0 multiplicity 1
 C         2.754613        -1.761091        -0.551642
 C         2.482582        -0.643392         0.401408
 O         3.316097        -0.905316         1.660045
 C         3.449242         0.383060         0.920684
 C         2.786885         1.569428         1.599807
 C         1.437765         1.301164         1.554048
 C         1.112630        -0.098493         0.899660
 C         0.068932         0.042480        -0.172292
 O         0.491450        -0.872956         1.872616
 H         2.013576        -2.497799        -0.251556
 H         2.633348        -1.537915        -1.618965
 H         3.783221        -2.070374        -0.327278
 H         4.417560         0.533933         0.389331
 H         3.235928         2.477837         2.040753
 H         0.602707         1.993248         1.945352
 H         0.501728         0.521264        -1.077993
 H        -0.195224        -0.908976        -0.616534
 H        -0.725098         0.739565         0.169134
 H         1.255249        -1.185190         2.500982
