19
Iteration:  4945charge 0 multiplicity 1
 C         2.494230        -1.919981        -0.293060
 C         2.468189        -0.636739         0.524922
 O         3.552274        -0.686836         1.410533
 C         3.375244         0.587256         0.804303
 C         2.687376         1.669022         1.496396
 C         1.396532         1.257216         1.574555
 C         1.149118        -0.160870         1.045296
 C         0.201251         0.020531        -0.259149
 O         0.564323        -1.069949         1.966438
 H         3.470582        -1.886010        -0.811190
 H         2.512381        -2.705404         0.425535
 H         1.607022        -2.201947        -0.864133
 H         4.192850         0.899464         0.173574
 H         3.143328         2.711122         1.469657
 H         0.623417         1.972050         1.850813
 H         0.786040         0.516375        -1.080160
 H        -0.308477        -0.888609        -0.676426
 H        -0.755656         0.677057        -0.115034
 H         1.167442        -1.646989         2.373100
