19
Iteration:  2196
 C         2.928956        -1.579889        -0.648221
 C         2.596186        -0.644983         0.546867
 O         3.368500        -0.958552         1.626884
 C         3.531500         0.371264         0.943948
 C         2.756276         1.495715         1.526716
 C         1.405744         1.347555         1.438764
 C         1.075290        -0.097638         0.867770
 C        -0.140193        -0.049301        -0.223704
 O         0.402325        -0.865906         2.071054
 H         2.158604        -2.306823        -1.017340
 H         3.308348        -1.058960        -1.552539
 H         3.753507        -2.246591        -0.362203
 H         4.527398         0.480986         0.495125
 H         3.245112         2.344728         2.029635
 H         0.563396         2.004710         1.752946
 H         0.294615         0.209175        -1.197008
 H        -0.722721        -1.005098        -0.354512
 H        -0.802633         0.739034         0.223797
 H         1.052070        -0.953081         2.889479
