19
Iteration:  3019
 C         2.804472        -1.626720        -0.647986
 C         2.562100        -0.616374         0.468658
 O         3.412010        -0.863130         1.623293
 C         3.431048         0.418586         0.871329
 C         2.693028         1.562261         1.596464
 C         1.425434         1.374822         1.488654
 C         1.056715        -0.048261         0.877351
 C        -0.112498        -0.239038        -0.144392
 O         0.587823        -0.883080         2.000550
 H         2.305867        -1.456486        -1.693228
 H         3.831814        -1.813847        -0.778541
 H         2.300313        -2.528315        -0.391610
 H         4.416884         0.689512         0.525109
 H         3.238907         2.430671         1.977210
 H         0.738212         2.009996         2.051619
 H         0.143355        -0.085446        -1.208596
 H        -0.222721        -1.289706         0.127842
 H        -0.957130         0.277815         0.228011
 H         1.443991        -1.060286         2.555320
