19
Iteration:  3944
 C         2.739426        -1.723353        -0.593033
 C         2.469607        -0.616799         0.446534
 O         3.427551        -0.756178         1.639695
 C         3.369155         0.442633         0.777098
 C         2.691447         1.579259         1.525559
 C         1.345918         1.315155         1.544841
 C         1.089772        -0.065037         0.897824
 C        -0.044596        -0.258402        -0.144003
 O         0.730181        -0.905619         2.029135
 H         3.289902        -2.518744        -0.080125
 H         1.708485        -1.986070        -0.946873
 H         3.400529        -1.324685        -1.378051
 H         4.329962         0.771514         0.283825
 H         3.347537         2.414891         1.753183
 H         0.544652         1.832887         2.039947
 H         0.332630         0.204278        -1.110343
 H        -0.425374        -1.288710        -0.015033
 H        -0.901311         0.403023         0.197336
 H         1.484178        -0.865292         2.593648
