19
Iteration:  2166charge 0 multiplicity 1
 C         2.891352        -1.485948        -0.788163
 C         2.481594        -0.673303         0.549019
 O         3.244707        -0.973139         1.788707
 C         3.438689         0.272768         1.023111
 C         2.762481         1.454069         1.479181
 C         1.431590         1.376129         1.308799
 C         1.133272        -0.056573         0.858319
 C        -0.056914        -0.100079        -0.108723
 O         0.545998        -0.804846         2.025024
 H         2.451285        -2.489834        -0.943645
 H         3.112847        -0.833705        -1.646170
 H         3.880373        -1.781491        -0.556034
 H         4.497098         0.383927         0.667662
 H         3.215927         2.344351         1.869792
 H         0.590154         2.013702         1.652854
 H        -0.010838         0.633706        -0.918478
 H        -0.225874        -1.112402        -0.481033
 H        -0.934449         0.120798         0.430683
 H         1.339947        -1.145409         2.549931
