19
Iteration:  3649charge 0 multiplicity 1
 C         2.698721        -1.592231        -0.745197
 C         2.477014        -0.685094         0.508085
 O         3.430411        -0.745727         1.652617
 C         3.443240         0.434988         0.716715
 C         2.656733         1.614876         1.365963
 C         1.372215         1.265685         1.537053
 C         1.119812        -0.126945         1.070399
 C         0.083833        -0.171976        -0.067189
 O         0.592532        -0.964984         2.090723
 H         3.738562        -2.011502        -0.492737
 H         1.870742        -2.318062        -0.664008
 H         2.780158        -0.882402        -1.537326
 H         4.387116         0.519733         0.228759
 H         2.949407         2.603678         1.620458
 H         0.550977         1.746418         2.077735
 H         0.356679         0.126189        -1.055285
 H        -0.285497        -1.224035        -0.098449
 H        -0.837817         0.339047         0.353135
 H         1.466346        -1.264168         2.544590
