19
Iteration:  3453
 C         2.706634        -1.706290        -0.524088
 C         2.493872        -0.665373         0.550462
 O         3.498806        -0.715730         1.514081
 C         3.483576         0.492510         0.694999
 C         2.663697         1.604834         1.405897
 C         1.367219         1.252094         1.583246
 C         1.021292        -0.117856         1.042772
 C         0.131844        -0.021815        -0.156008
 O         0.484109        -1.097569         2.060756
 H         1.781365        -1.706041        -1.257595
 H         3.609782        -1.435546        -1.110747
 H         2.835082        -2.652023        -0.001421
 H         4.416907         0.735365         0.108677
 H         3.202455         2.472557         1.819169
 H         0.675947         1.902916         2.101792
 H         0.603143         0.726191        -0.848773
 H         0.164562        -1.056132        -0.548846
 H        -0.933271         0.261796        -0.006808
 H         1.058688        -1.163106         2.876466
