19
Iteration:  1070charge 0 multiplicity 1
 C         2.541548        -1.617266        -0.678010
 C         2.472260        -0.634583         0.485315
 O         3.312162        -0.898385         1.741593
 C         3.461901         0.309962         0.966591
 C         2.773025         1.500890         1.589497
 C         1.398371         1.405719         1.474613
 C         1.112087        -0.010061         0.928291
 C         0.206562        -0.115547        -0.231840
 O         0.591558        -0.907380         1.930191
 H         1.935072        -2.502431        -0.497011
 H         2.253233        -1.131099        -1.569709
 H         3.661774        -1.892789        -0.699039
 H         4.461761         0.404996         0.569086
 H         3.268177         2.473920         1.964578
 H         0.583477         2.051897         1.822224
 H         0.795664         0.295297        -1.126434
 H        -0.195614        -1.163224        -0.354510
 H        -0.664267         0.526227        -0.206339
 H         1.409231        -1.108431         2.438802
