19
Iteration:  2163
 C         2.890959        -1.482706        -0.781427
 C         2.477606        -0.685487         0.543599
 O         3.212630        -0.978247         1.799512
 C         3.477422         0.276488         1.021692
 C         2.747381         1.475987         1.469887
 C         1.427013         1.390365         1.331362
 C         1.149000        -0.069727         0.836960
 C        -0.050956        -0.115152        -0.114941
 O         0.562312        -0.809773         2.036640
 H         2.356931        -2.432613        -0.944662
 H         2.957050        -0.816492        -1.664707
 H         3.915658        -1.765190        -0.614146
 H         4.500940         0.342256         0.664356
 H         3.299216         2.340216         1.909986
 H         0.584854         1.993863         1.641932
 H        -0.030081         0.642372        -0.892474
 H        -0.199480        -1.110734        -0.583885
 H        -0.972702         0.119984         0.405514
 H         1.321026        -1.052957         2.519481
