19
Iteration:  4955
 C         2.505975        -1.929442        -0.288139
 C         2.475566        -0.627687         0.515612
 O         3.635559        -0.667902         1.441403
 C         3.438969         0.546037         0.684916
 C         2.632491         1.592417         1.579013
 C         1.335866         1.286852         1.540646
 C         1.106069        -0.141599         0.994796
 C         0.215671         0.026702        -0.244666
 O         0.515080        -1.012343         2.008120
 H         3.397690        -2.013014        -0.996470
 H         2.654613        -2.700094         0.496633
 H         1.699791        -2.171179        -1.004628
 H         4.165761         0.780727        -0.069123
 H         3.049579         2.622715         1.867910
 H         0.443369         1.784752         1.959010
 H         0.703900         0.474263        -1.156506
 H        -0.149370        -1.001177        -0.484328
 H        -0.552142         0.826403         0.074533
 H         1.216244        -1.618658         2.230775
