19
Iteration:  2706
 C         2.799815        -1.471428        -0.649396
 C         2.525078        -0.698635         0.591492
 O         3.211195        -0.948345         1.741394
 C         3.506244         0.443968         0.937195
 C         2.802616         1.626532         1.336848
 C         1.480472         1.311910         1.415243
 C         1.062351        -0.138615         1.013743
 C         0.037243        -0.059107        -0.175251
 O         0.507422        -1.038771         1.975137
 H         3.988677        -1.385536        -0.764242
 H         2.474883        -2.496852        -0.388786
 H         2.207309        -0.962858        -1.415700
 H         4.430313         0.504658         0.411561
 H         3.369969         2.515653         1.647691
 H         0.659096         2.050805         1.565021
 H         0.445057         0.058780        -1.232092
 H        -0.455523        -1.080220        -0.238768
 H        -0.756295         0.604469         0.133127
 H         1.127270        -1.067273         2.683139
