19
Iteration:  2912
 C         2.732886        -1.798782        -0.462614
 C         2.578582        -0.646349         0.488268
 O         3.581204        -0.727828         1.534158
 C         3.428991         0.565226         0.767876
 C         2.675262         1.566062         1.612719
 C         1.376974         1.265246         1.579651
 C         1.101267        -0.112228         0.910778
 C        -0.034703        -0.070713        -0.209399
 O         0.487630        -0.971521         1.931739
 H         2.089464        -1.600453        -1.383525
 H         3.679366        -2.155015        -0.784902
 H         2.251263        -2.569707         0.118526
 H         4.339108         0.779343         0.236071
 H         3.316128         2.246009         2.136128
 H         0.573511         1.397077         2.312757
 H         0.173000         0.665284        -1.059529
 H        -0.349107        -1.041332        -0.678530
 H        -0.987275         0.249249         0.233320
 H         1.071124        -0.863375         2.658402
