19
Iteration:  4949
 C         2.497527        -1.923621        -0.290437
 C         2.461778        -0.641005         0.528195
 O         3.586940        -0.678273         1.411874
 C         3.402010         0.576393         0.764449
 C         2.670587         1.651167         1.553220
 C         1.364215         1.269402         1.550719
 C         1.139745        -0.162414         1.028233
 C         0.206944         0.019696        -0.256739
 O         0.549018        -1.044377         1.982568
 H         3.364708        -1.897262        -0.898894
 H         2.520052        -2.683961         0.503460
 H         1.695382        -2.284754        -0.940110
 H         4.209865         0.863965         0.036868
 H         3.105466         2.617559         1.561761
 H         0.563556         1.915095         1.879537
 H         0.605466         0.574906        -1.106096
 H        -0.215350        -0.917579        -0.587507
 H        -0.562445         0.768364        -0.161951
 H         1.192084        -1.731506         2.367533
