19
Iteration:  3174
 C         2.561806        -1.768902        -0.583976
 C         2.492359        -0.647174         0.445099
 O         3.602204        -0.604606         1.581143
 C         3.414921         0.475832         0.808424
 C         2.674380         1.590426         1.513519
 C         1.332541         1.277190         1.591919
 C         1.066303        -0.199512         0.976440
 C         0.101661        -0.084590        -0.270029
 O         0.580109        -1.007082         2.084505
 H         3.188299        -1.649643        -1.457238
 H         3.011240        -2.643309        -0.011409
 H         1.557652        -2.173810        -0.777740
 H         4.315741         0.672601         0.158463
 H         3.251790         2.384236         1.974611
 H         0.585593         1.940699         2.112419
 H         0.522110         0.753077        -0.771314
 H        -0.083525        -0.973352        -0.860490
 H        -0.803108         0.283678         0.217012
 H         1.374901        -1.386787         2.487008
