19
Iteration:   745charge 0 multiplicity 1
 C         2.662971        -1.619779        -0.616058
 C         2.555952        -0.678147         0.595719
 O         3.175705        -0.976534         1.856761
 C         3.575714         0.331130         1.110446
 C         2.795013         1.599309         1.223773
 C         1.506847         1.332607         1.357043
 C         1.120015        -0.103984         0.920854
 C         0.001073         0.115204        -0.183882
 O         0.561627        -0.953582         1.896162
 H         1.744809        -2.295806        -0.623969
 H         2.496189        -1.112762        -1.570666
 H         3.573913        -2.349762        -0.512285
 H         4.697166         0.168545         1.076955
 H         3.229788         2.611404         1.366459
 H         0.679314         2.053552         1.695203
 H         0.253486        -0.536412        -1.062914
 H        -0.900143        -0.240268         0.347689
 H        -0.116192         1.153474        -0.549668
 H         1.490479        -1.158917         2.395002
