19
Iteration:  1843
 C         2.785018        -1.653488        -0.748538
 C         2.548683        -0.665273         0.407313
 O         3.254792        -0.909647         1.665677
 C         3.553935         0.327745         1.057101
 C         2.719619         1.420593         1.729875
 C         1.445871         1.273503         1.389286
 C         1.065360        -0.078068         0.835810
 C        -0.014810        -0.122578        -0.267124
 O         0.568829        -0.631318         2.082361
 H         2.012365        -2.513117        -0.778505
 H         2.920603        -1.343796        -1.849723
 H         3.702650        -2.215469        -0.421595
 H         4.584550         0.438808         0.610409
 H         3.093827         2.296133         2.274487
 H         0.571223         1.813851         1.681101
 H         0.367879         0.652625        -0.982606
 H        -0.175059        -1.098237        -0.800848
 H        -1.051368         0.116319         0.127124
 H         1.109794        -0.384112         2.829247
