19
Iteration:  3732charge 0 multiplicity 1
 C         2.849031        -1.648342        -0.522359
 C         2.468063        -0.575145         0.463010
 O         3.453327        -0.721946         1.571415
 C         3.463192         0.491607         0.703481
 C         2.711985         1.579310         1.323010
 C         1.457440         1.195808         1.533995
 C         1.016652        -0.087769         1.022171
 C        -0.145856        -0.073413         0.000759
 O         0.585197        -1.099152         2.055095
 H         2.578780        -2.615844        -0.101042
 H         2.493588        -1.550345        -1.512539
 H         3.953812        -1.750807        -0.755879
 H         4.290640         0.816070        -0.003979
 H         3.200032         2.483595         1.641557
 H         0.678879         1.770763         2.024785
 H        -0.024568         0.549620        -0.949353
 H        -0.346507        -1.105698        -0.296206
 H        -1.059041         0.335159         0.396898
 H         1.333870        -1.246470         2.739839
