19
Iteration:  3929charge 0 multiplicity 1
 C         2.634284        -1.681194        -0.690018
 C         2.502562        -0.624597         0.449378
 O         3.391076        -0.644617         1.678471
 C         3.473765         0.479222         0.815156
 C         2.731764         1.581608         1.463386
 C         1.410328         1.276765         1.498914
 C         1.109515        -0.188404         0.964965
 C         0.044634        -0.273608        -0.081388
 O         0.609301        -0.881274         2.036604
 H         3.144984        -2.669258        -0.265969
 H         1.723140        -2.097231        -1.059217
 H         3.355181        -1.361312        -1.456420
 H         4.325333         0.559381         0.195214
 H         3.032400         2.459208         2.078472
 H         0.688372         1.893955         2.055065
 H         0.168032         0.238435        -1.016195
 H        -0.098986        -1.335411        -0.480684
 H        -1.022389         0.044015         0.223121
 H         1.360022        -1.010697         2.740281
