19
Iteration:  3422
 C         2.395289        -1.716415        -0.486763
 C         2.601824        -0.610569         0.497924
 O         3.464600        -0.697572         1.663906
 C         3.481516         0.533867         0.766823
 C         2.614578         1.621739         1.439484
 C         1.344054         1.208071         1.578123
 C         1.197989        -0.107611         0.945343
 C         0.127116        -0.085906        -0.130426
 O         0.698126        -1.104227         1.883185
 H         2.055726        -1.319216        -1.478480
 H         3.343579        -2.216833        -0.744074
 H         1.684301        -2.339366        -0.030424
 H         4.478784         0.682282         0.261457
 H         3.017831         2.597271         1.814398
 H         0.460385         1.780855         1.837448
 H         0.379046         0.534525        -0.975676
 H        -0.175739        -1.129653        -0.313988
 H        -0.767621         0.308684         0.420763
 H         1.344500        -1.055570         2.623269
