19
Iteration:    23
 C         2.472756        -1.697151        -0.388446
 C         2.511542        -0.552742         0.625388
 O         3.482586        -0.865115         1.699109
 C         3.552486         0.393094         0.946604
 C         2.813606         1.616525         1.429492
 C         1.471775         1.444724         1.405485
 C         1.109189        -0.036588         0.991107
 C         0.056049         0.017437        -0.169263
 O         0.498550        -1.200963         1.720877
 H         1.882171        -2.511684         0.043689
 H         1.955075        -1.452535        -1.310487
 H         3.462299        -2.086914        -0.664038
 H         4.413506         0.442772         0.341709
 H         3.222269         2.609962         1.516821
 H         0.705637         2.207003         1.489945
 H        -0.254289        -0.967014        -0.500377
 H        -0.833230         0.554966         0.191934
 H         0.381610         0.561808        -1.048904
 H         1.086658        -1.397134         2.632993
