19
Iteration:   895
 C         2.722269        -1.906694        -0.464047
 C         2.455702        -0.664982         0.492232
 O         3.228932        -0.730011         1.695105
 C         3.468108         0.354585         0.889432
 C         2.858374         1.597360         1.570732
 C         1.548556         1.303449         1.546502
 C         1.103558        -0.075579         0.895008
 C         0.017858         0.190990        -0.185938
 O         0.542752        -1.006284         1.778627
 H         2.178137        -2.756599        -0.058528
 H         2.465442        -1.599971        -1.466710
 H         3.829073        -2.099378        -0.462272
 H         4.482136         0.338549         0.385641
 H         3.365593         2.479148         1.957494
 H         0.579813         1.685778         1.946178
 H        -0.395060         1.249011         0.012524
 H         0.266987         0.197294        -1.292713
 H        -0.814597        -0.572272        -0.108253
 H         1.160309        -1.593450         2.076070
