19
Iteration:   245charge 0 multiplicity 1
 C         2.647662        -1.503391        -0.579996
 C         2.443996        -0.648315         0.626609
 O         3.336023        -0.997441         1.673764
 C         3.518722         0.264028         0.935091
 C         2.885604         1.526541         1.400186
 C         1.569996         1.434446         1.419681
 C         1.087835        -0.067725         0.958246
 C         0.064886        -0.180343        -0.233050
 O         0.409119        -0.801382         2.031974
 H         1.825335        -2.224255        -0.835656
 H         2.738352        -0.647087        -1.336645
 H         3.580725        -2.006270        -0.703933
 H         4.410717         0.251574         0.273986
 H         3.348219         2.492872         1.528753
 H         0.755165         2.110506         1.657220
 H         0.151426        -1.245643        -0.525835
 H        -0.961288        -0.102675         0.183288
 H         0.126292         0.432343        -1.184760
 H         1.036593        -1.051862         2.837890
