19
Iteration:   767
 C         2.700150        -1.682209        -0.569951
 C         2.461329        -0.645299         0.455156
 O         3.137235        -0.866320         1.803684
 C         3.462530         0.280356         0.992880
 C         2.802075         1.462467         1.551825
 C         1.497270         1.428829         1.263187
 C         1.162106        -0.053545         0.881124
 C         0.011469         0.039237        -0.157143
 O         0.654259        -0.933698         1.958351
 H         1.864917        -2.319838        -0.963000
 H         2.990631        -1.160623        -1.480533
 H         3.546732        -2.403460        -0.176615
 H         4.468496         0.186928         0.491166
 H         3.482175         2.278074         1.900503
 H         0.606047         2.148835         1.306755
 H         0.106041        -0.799978        -0.896061
 H        -0.953700         0.080051         0.382448
 H         0.174444         0.951208        -0.778347
 H         1.441043        -0.987513         2.521427
