19
Iteration:  4470
 C         2.624153        -1.631537        -0.652099
 C         2.453650        -0.647733         0.459403
 O         3.472648        -0.714535         1.574037
 C         3.428492         0.478045         0.726980
 C         2.661893         1.584568         1.379467
 C         1.372174         1.289283         1.546611
 C         1.139103        -0.128635         1.006947
 C         0.059016        -0.311657        -0.072028
 O         0.658917        -0.892488         2.174181
 H         2.517334        -1.087418        -1.565397
 H         3.524196        -2.192946        -0.570046
 H         1.755117        -2.241682        -0.479140
 H         4.329333         0.611704         0.046247
 H         3.084932         2.547554         1.572853
 H         0.693153         1.903674         2.092722
 H         0.203041         0.123355        -1.059395
 H        -0.098405        -1.344717        -0.390194
 H        -0.891865        -0.140959         0.376969
 H         1.483200        -0.914898         2.762185
