19
Iteration:  3248
 C         2.900387        -1.641489        -0.570274
 C         2.531521        -0.684131         0.517708
 O         3.386073        -0.760887         1.608248
 C         3.441460         0.473406         0.728658
 C         2.636730         1.560682         1.424058
 C         1.371827         1.226271         1.495712
 C         1.104497        -0.162732         0.928321
 C        -0.235404        -0.053378         0.020309
 O         0.698427        -0.972883         2.004997
 H         4.024194        -1.822215        -0.728493
 H         2.450050        -2.630265        -0.575552
 H         2.513513        -1.157774        -1.485815
 H         4.415935         0.698862         0.210142
 H         3.118159         2.472229         1.680299
 H         0.438550         1.742380         1.866323
 H         0.192288         0.067079        -0.966602
 H        -0.890376        -0.859549         0.268127
 H        -0.533780         0.895811         0.387152
 H         1.469185        -1.159291         2.495697
