19
Iteration:   196
 C         2.881887        -1.723386        -0.638569
 C         2.587285        -0.696390         0.459976
 O         3.152184        -0.998232         1.659139
 C         3.459717         0.358370         0.940317
 C         2.757648         1.527694         1.491739
 C         1.413407         1.240391         1.428954
 C         1.081241        -0.080588         0.777266
 C        -0.108149         0.068936        -0.141228
 O         0.685849        -0.704202         2.125022
 H         2.080479        -2.447755        -0.681412
 H         3.187812        -1.376586        -1.581772
 H         3.723290        -2.368647        -0.281294
 H         4.495604         0.383335         0.665210
 H         3.071194         2.520495         1.907710
 H         0.475498         1.841254         1.633978
 H        -0.473871        -0.844264        -0.615745
 H        -0.988027         0.386150         0.420141
 H         0.081077         0.887444        -0.807408
 H         1.619732        -0.950322         2.472336
