19
Iteration:   441charge 0 multiplicity 1
 C         2.816386        -1.751598        -0.483947
 C         2.549877        -0.613364         0.485399
 O         3.325173        -0.863377         1.720398
 C         3.568874         0.384329         0.851553
 C         2.879324         1.532638         1.530738
 C         1.504098         1.266645         1.527177
 C         1.019618        -0.076468         0.869865
 C        -0.188978        -0.019012        -0.261166
 O         0.485188        -0.846889         1.873142
 H         1.954493        -2.378598        -0.679368
 H         3.075240        -1.303481        -1.435184
 H         3.597094        -2.388843        -0.167760
 H         4.513413         0.573317         0.394440
 H         3.462339         2.200287         2.187454
 H         0.864332         1.855135         2.168697
 H        -0.922149        -0.775061        -0.025084
 H        -0.639070         0.911004        -0.087311
 H         0.023849        -0.193271        -1.296630
 H         0.874934        -0.680412         2.701197
