19
Iteration:  4961charge 0 multiplicity 1
 C         2.540125        -1.925034        -0.308644
 C         2.511628        -0.611024         0.500324
 O         3.671676        -0.654310         1.477620
 C         3.433686         0.509058         0.633988
 C         2.621411         1.554221         1.548696
 C         1.311179         1.266003         1.551614
 C         1.084386        -0.102612         0.966767
 C         0.207895         0.034864        -0.224243
 O         0.478891        -0.970696         2.016423
 H         3.432620        -2.053255        -0.919596
 H         2.714205        -2.802430         0.387150
 H         1.601228        -1.979403        -0.876057
 H         4.195353         0.778023        -0.132935
 H         2.969082         2.366715         2.141233
 H         0.449967         1.695333         2.088278
 H         0.874226         0.284056        -1.044931
 H        -0.248754        -0.926680        -0.433835
 H        -0.599732         0.593102         0.164016
 H         1.245906        -1.516224         2.192390
