19
Iteration:  1913charge 0 multiplicity 1
 C         2.758452        -1.480021        -0.817404
 C         2.547854        -0.655888         0.548050
 O         3.177046        -0.945003         1.899436
 C         3.570529         0.307250         1.078504
 C         2.830060         1.571459         1.374184
 C         1.485842         1.264001         1.363452
 C         1.129879        -0.112602         0.888935
 C        -0.009050        -0.020131        -0.227446
 O         0.497048        -0.931851         2.042469
 H         2.187009        -2.443042        -0.924678
 H         2.452496        -0.799257        -1.595005
 H         3.864402        -1.771763        -0.952590
 H         4.586325         0.203863         0.723814
 H         3.255089         2.515390         1.644688
 H         0.646092         1.902138         1.704509
 H         0.453129         0.240386        -1.178577
 H        -0.542670        -0.963611        -0.375911
 H        -0.889969         0.646695        -0.060019
 H         0.996965        -0.864520         2.954484
