19
Iteration:  1150
 C         2.771197        -1.764573        -0.483973
 C         2.490800        -0.647201         0.501681
 O         3.350305        -0.854757         1.653265
 C         3.494113         0.394147         0.860319
 C         2.781715         1.535016         1.406413
 C         1.454083         1.286777         1.568887
 C         1.092879        -0.120152         0.979246
 C         0.087959         0.192770        -0.177951
 O         0.410461        -0.968223         1.884843
 H         2.153166        -2.684189        -0.201034
 H         2.592132        -1.546732        -1.616665
 H         3.794894        -2.011868        -0.305179
 H         4.413523         0.475401         0.234007
 H         3.220324         2.430788         1.737784
 H         0.788414         1.804142         2.281246
 H         0.042401         1.271108        -0.592706
 H         0.232984        -0.484461        -1.162427
 H        -1.003851        -0.016763         0.348414
 H         1.077153        -1.458693         2.308179
