19
Iteration:   424
 C         2.572307        -1.721947        -0.443391
 C         2.506302        -0.648672         0.493741
 O         3.425689        -0.766776         1.648514
 C         3.508034         0.381583         0.856734
 C         2.827762         1.480814         1.581409
 C         1.466861         1.204923         1.585067
 C         1.120553        -0.036540         0.833416
 C         0.064293        -0.048612        -0.293423
 O         0.458507        -0.839678         1.880508
 H         1.590342        -2.253879        -0.472262
 H         2.952669        -1.493739        -1.455437
 H         3.330573        -2.475102         0.042847
 H         4.442304         0.565840         0.216144
 H         3.235041         2.395009         2.083522
 H         0.670748         1.725496         2.166357
 H        -0.647449        -0.867016         0.050287
 H        -0.653515         0.866896        -0.280717
 H         0.551960        -0.080088        -1.304246
 H         1.149860        -0.881117         2.618749
