19
Iteration:  1751
 C         2.541942        -1.820198        -0.370210
 C         2.534371        -0.677189         0.549806
 O         3.459197        -0.795761         1.690521
 C         3.412754         0.433796         0.813611
 C         2.686546         1.542201         1.462538
 C         1.398177         1.232562         1.705717
 C         1.171589        -0.101268         0.909589
 C         0.237953         0.309526        -0.346233
 O         0.465225        -1.123100         1.777696
 H         2.219659        -2.733123         0.197129
 H         1.920758        -1.815154        -1.322664
 H         3.672904        -1.977496        -0.559536
 H         4.366582         0.653702         0.302330
 H         3.387943         2.385182         1.761078
 H         0.577954         1.847303         2.111429
 H         0.940406         0.644132        -1.169348
 H        -0.404956        -0.551056        -0.672915
 H        -0.448150         1.146831        -0.070461
 H         0.737336        -0.807798         2.727527
