19
Iteration:  3553charge 0 multiplicity 1
 C         2.497930        -1.685005        -0.527337
 C         2.552763        -0.566300         0.474527
 O         3.379918        -0.746304         1.667439
 C         3.460620         0.512756         0.761506
 C         2.647313         1.636524         1.420167
 C         1.370344         1.206410         1.603200
 C         1.096085        -0.126092         0.964810
 C         0.114934        -0.120382        -0.204697
 O         0.745277        -1.052565         1.966596
 H         1.693365        -1.251884        -1.067217
 H         3.427269        -2.088335        -1.041171
 H         1.927851        -2.378545         0.086152
 H         4.496429         0.586956         0.540820
 H         3.201398         2.536621         1.689289
 H         0.685494         1.774113         2.232304
 H         0.586049         0.502992        -0.916443
 H         0.062980        -1.143220        -0.612378
 H        -0.928865         0.296115         0.022138
 H         1.531217        -1.213889         2.511166
