19
Iteration:  4967
 C         2.585919        -1.898815        -0.324558
 C         2.543191        -0.634670         0.502736
 O         3.688659        -0.630293         1.507794
 C         3.409509         0.504749         0.630745
 C         2.621427         1.519193         1.475741
 C         1.312302         1.205506         1.580677
 C         1.083430        -0.086216         0.964776
 C         0.181365        -0.004916        -0.198534
 O         0.453934        -0.915426         1.998909
 H         3.459841        -1.922146        -1.002080
 H         2.538388        -2.774497         0.300051
 H         1.590112        -1.947804        -0.783047
 H         4.204393         0.813659        -0.045546
 H         3.132323         2.147677         2.285413
 H         0.617401         1.689667         2.247579
 H         0.804412         0.380141        -1.044872
 H        -0.352170        -0.949331        -0.485105
 H        -0.774782         0.671490        -0.055384
 H         1.221029        -1.490564         2.387660
