19
Iteration:  3106
 C         2.671001        -1.599735        -0.536487
 C         2.536304        -0.646207         0.585332
 O         3.324116        -0.654235         1.756822
 C         3.594804         0.456043         0.787897
 C         2.735139         1.619037         1.232828
 C         1.471989         1.253285         1.513846
 C         1.086572        -0.247862         1.006059
 C        -0.019374         0.005077        -0.067762
 O         0.542856        -1.191115         1.914968
 H         2.252184        -0.927764        -1.395196
 H         3.686095        -1.894322        -0.669253
 H         2.049237        -2.467188        -0.425221
 H         4.585230         0.548571         0.278623
 H         3.092549         2.663432         1.407597
 H         0.754139         1.951678         1.888146
 H         0.346890         0.602527        -0.900851
 H        -0.462029        -0.844790        -0.531173
 H        -0.771229         0.581281         0.382140
 H         1.239878        -1.636950         2.458599
