19
Iteration:  3082
 C         2.637013        -1.578324        -0.637570
 C         2.465351        -0.705491         0.555221
 O         3.464129        -0.892097         1.703341
 C         3.473940         0.429019         0.864502
 C         2.619385         1.664189         1.316628
 C         1.365544         1.324820         1.489158
 C         1.103169        -0.129769         1.034018
 C         0.155810        -0.062814        -0.088292
 O         0.585581        -1.008915         1.960972
 H         1.909552        -1.340091        -1.494241
 H         3.697205        -1.648642        -0.862549
 H         2.431614        -2.584839        -0.227053
 H         4.413210         0.598677         0.376672
 H         2.976143         2.685161         1.454985
 H         0.481269         1.899161         1.773317
 H         0.398688         0.563814        -0.943654
 H         0.123785        -1.046621        -0.536712
 H        -0.817802         0.229434         0.240606
 H         1.311757        -1.111392         2.688301
