19
Iteration:  4683charge 0 multiplicity 1
 C         2.463186        -1.844222        -0.395790
 C         2.595952        -0.654682         0.552882
 O         3.555792        -0.535389         1.651473
 C         3.449348         0.533821         0.666105
 C         2.632152         1.576035         1.323431
 C         1.398668         1.221930         1.616544
 C         1.161087        -0.183454         0.999572
 C         0.088904         0.012423        -0.157260
 O         0.592358        -1.105252         1.903912
 H         3.319122        -2.538303        -0.711598
 H         1.551687        -2.508115        -0.241632
 H         2.136957        -1.339934        -1.391107
 H         4.393958         0.705332         0.064175
 H         2.988946         2.532564         1.761438
 H         0.676077         1.739670         2.247402
 H         0.748252         0.282041        -1.017521
 H        -0.500841        -0.956902        -0.332028
 H        -0.677462         0.703222         0.267479
 H         1.094564        -1.174007         2.696301
