19
Iteration:  3095
 C         2.647788        -1.551122        -0.519598
 C         2.544494        -0.603554         0.586981
 O         3.399072        -0.794340         1.720441
 C         3.422877         0.447591         0.889814
 C         2.698077         1.625151         1.199878
 C         1.415331         1.247228         1.448571
 C         1.163383        -0.155210         1.000953
 C         0.076700        -0.021628        -0.081618
 O         0.544472        -1.141541         1.942953
 H         2.127601        -1.097267        -1.488698
 H         3.633313        -1.665311        -0.886588
 H         2.156102        -2.481576        -0.336697
 H         4.329107         0.423046         0.274420
 H         3.260475         2.571626         1.350046
 H         0.677567         1.834378         1.940451
 H         0.423020         0.686324        -0.823547
 H        -0.265497        -0.976128        -0.387583
 H        -0.720111         0.402764         0.448431
 H         1.220265        -1.457694         2.497492
