19
Iteration:  4533
 C         2.704546        -1.596034        -0.700838
 C         2.564486        -0.652317         0.439308
 O         3.332084        -0.748789         1.637397
 C         3.457631         0.405377         0.824033
 C         2.661306         1.633443         1.340670
 C         1.421604         1.252300         1.449459
 C         1.106279        -0.190592         0.969087
 C        -0.138453        -0.250271        -0.003267
 O         0.750901        -0.869276         2.136594
 H         1.869362        -2.142605        -1.166103
 H         3.235955        -1.141253        -1.544286
 H         3.362123        -2.428711        -0.348899
 H         4.525335         0.503355         0.468099
 H         2.857254         2.617758         1.739483
 H         0.646429         1.833853         1.896968
 H         0.169061         0.215602        -1.034333
 H        -0.485595        -1.337597        -0.044913
 H        -0.801477         0.526177         0.525219
 H         1.528941        -0.845073         2.801972
