19
Iteration:  4450
 C         2.508995        -1.762708        -0.651857
 C         2.539859        -0.667964         0.447205
 O         3.389135        -0.648739         1.639988
 C         3.434536         0.589271         0.738024
 C         2.658088         1.675896         1.349074
 C         1.406417         1.247142         1.472125
 C         1.084640        -0.127929         1.000348
 C         0.083544        -0.214885        -0.004911
 O         0.763093        -1.016028         2.129408
 H         2.825656        -1.288501        -1.593122
 H         3.224476        -2.555540        -0.373260
 H         1.591098        -2.386646        -0.770801
 H         4.370702         0.631436         0.134010
 H         3.110970         2.491966         1.874986
 H         0.644223         1.717615         2.066385
 H         0.252036         0.542775        -0.705149
 H        -0.099475        -1.060707        -0.561933
 H        -0.937231        -0.191354         0.233533
 H         1.556541        -0.989733         2.685483
