19
Iteration:  3201
 C         2.619137        -1.556900        -0.560923
 C         2.579459        -0.681389         0.590604
 O         3.456582        -0.726408         1.581312
 C         3.427656         0.526494         0.697752
 C         2.655230         1.575086         1.362893
 C         1.405169         1.181443         1.621752
 C         1.105216        -0.175145         1.031160
 C         0.129851        -0.161122        -0.148384
 O         0.507673        -0.979805         2.012699
 H         3.399291        -1.196136        -1.269439
 H         2.916768        -2.556678        -0.331258
 H         1.692319        -1.643921        -1.087084
 H         4.275367         0.577808         0.055139
 H         3.172210         2.550085         1.530843
 H         0.734229         1.858506         2.092560
 H         0.533987         0.467593        -1.016978
 H         0.074840        -1.277176        -0.283576
 H        -0.797262         0.160190         0.370052
 H         1.070612        -1.009356         2.796189
