19
Iteration:   598
 C         2.676982        -1.724423        -0.552855
 C         2.558326        -0.668541         0.502116
 O         3.213706        -0.838818         1.829928
 C         3.511221         0.378437         0.885930
 C         2.721991         1.558074         1.257743
 C         1.471339         1.241751         1.550711
 C         1.102835        -0.094702         1.015086
 C         0.200278         0.210613        -0.202728
 O         0.457273        -1.046674         1.908016
 H         1.895345        -2.504793        -0.496886
 H         2.480502        -1.160116        -1.508076
 H         3.681433        -2.194464        -0.626700
 H         4.587457         0.316213         0.679104
 H         3.257142         2.533117         1.255892
 H         0.854386         2.112697         1.924745
 H        -0.600469        -0.559110        -0.185194
 H        -0.254401         1.228706        -0.032397
 H         0.783900         0.128544        -1.173936
 H         1.214227        -1.420846         2.389778
