19
Iteration:  4124charge 0 multiplicity 1
 C         2.743632        -1.675181        -0.531015
 C         2.537761        -0.638349         0.534889
 O         3.409773        -0.699729         1.663156
 C         3.377561         0.503419         0.754637
 C         2.589421         1.644680         1.198158
 C         1.408540         1.228100         1.529873
 C         1.086507        -0.153317         1.034047
 C         0.012070        -0.072750         0.055010
 O         0.703839        -1.097619         1.943180
 H         1.692749        -1.716646        -0.992248
 H         3.505514        -1.433033        -1.234782
 H         2.978901        -2.659843        -0.088054
 H         4.355452         0.578960         0.279573
 H         3.114824         2.605564         1.042285
 H         0.619441         1.811697         2.044726
 H         0.314812         0.507478        -0.839218
 H        -0.488541        -1.011773        -0.272289
 H        -0.847471         0.526850         0.491655
 H         1.436641        -1.358571         2.458620
