19
Iteration:  3993charge 0 multiplicity 1
 C         2.695924        -1.663459        -0.726984
 C         2.547350        -0.704841         0.561547
 O         3.394973        -0.675513         1.741906
 C         3.443070         0.457304         0.811251
 C         2.623632         1.649683         1.306132
 C         1.370003         1.252803         1.536696
 C         1.150664        -0.142121         0.944424
 C        -0.027944        -0.110496        -0.056835
 O         0.662585        -1.054263         2.015961
 H         3.034157        -2.675575        -0.379138
 H         1.733372        -1.738559        -1.146407
 H         3.520571        -1.324819        -1.361013
 H         4.349521         0.437751         0.291712
 H         3.031950         2.629517         1.553562
 H         0.676401         1.994035         1.848243
 H         0.362937        -0.103632        -1.020463
 H        -0.448244        -1.005769         0.377291
 H        -0.697878         0.724203         0.002660
 H         1.446769        -0.994534         2.694215
