19
Iteration:  2146
 C         2.756358        -1.465234        -0.705832
 C         2.618762        -0.627798         0.502253
 O         3.058455        -0.966137         1.758994
 C         3.514513         0.287293         1.065807
 C         2.808603         1.570463         1.471104
 C         1.475585         1.270398         1.375176
 C         1.029281        -0.119000         0.905402
 C        -0.001641        -0.182808        -0.237713
 O         0.672682        -0.795612         2.022898
 H         2.174617        -2.423792        -0.587797
 H         2.403254        -0.728821        -1.474170
 H         3.745102        -1.768172        -1.122462
 H         4.610280         0.246684         0.837117
 H         3.137819         2.478767         1.928958
 H         0.724473         2.013426         1.728398
 H         0.172311         0.715476        -0.876845
 H         0.038871        -1.134284        -0.774832
 H        -1.007511        -0.171644         0.237276
 H         1.440065        -0.711238         2.584036
