19
Iteration:  2841charge 0 multiplicity 1
 C         2.647342        -1.617222        -0.589314
 C         2.531619        -0.673165         0.529309
 O         3.405850        -0.706739         1.808647
 C         3.371311         0.379155         0.827248
 C         2.630712         1.604477         1.249748
 C         1.419414         1.235109         1.670604
 C         1.161795        -0.164770         1.046469
 C         0.145076         0.048411        -0.155449
 O         0.572264        -1.122419         1.858675
 H         1.767943        -2.143861        -0.822978
 H         2.916137        -1.145076        -1.591582
 H         3.424099        -2.435345        -0.434091
 H         4.321649         0.660485         0.248119
 H         3.150199         2.571035         1.094745
 H         0.701763         1.871052         2.161108
 H         0.771933         0.337622        -0.987327
 H        -0.499540        -0.794985        -0.373145
 H        -0.571622         0.907196        -0.054318
 H         1.041961        -1.179297         2.645724
