19
Iteration:  1662charge 0 multiplicity 1
 C         2.651854        -1.653700        -0.556244
 C         2.500065        -0.692907         0.584711
 O         3.315060        -0.878817         1.718203
 C         3.516704         0.341279         0.911663
 C         2.741218         1.575284         1.372969
 C         1.417932         1.333494         1.503213
 C         1.126444        -0.134993         1.011333
 C         0.288346         0.133208        -0.178325
 O         0.380801        -1.068585         1.883181
 H         2.033568        -2.528490        -0.528191
 H         2.356195        -1.008060        -1.315413
 H         3.760625        -2.019668        -0.605613
 H         4.345148         0.536595         0.207028
 H         3.164910         2.561136         1.332237
 H         0.636232         1.993548         1.815882
 H         0.963305         0.834100        -0.684540
 H         0.213807        -0.539718        -1.000009
 H        -0.737931         0.576775         0.028340
 H         0.773589        -0.948970         2.840683
