19
Iteration:   109charge 0 multiplicity 1
 C         2.754320        -1.748020        -0.485501
 C         2.442335        -0.753757         0.591587
 O         3.610536        -0.781813         1.570418
 C         3.420417         0.375926         0.737636
 C         2.763751         1.521171         1.524828
 C         1.436727         1.208892         1.604661
 C         1.037913        -0.138879         1.004543
 C         0.191887         0.074360        -0.225055
 O         0.223504        -0.837907         1.939646
 H         2.444257        -2.763670        -0.214588
 H         2.342882        -1.402956        -1.413007
 H         3.836698        -1.818229        -0.661279
 H         4.178391         0.598263         0.035330
 H         3.280974         2.485420         1.511023
 H         0.724775         1.958393         1.956756
 H        -0.018169        -0.795013        -0.826383
 H        -0.725032         0.571156         0.030591
 H         0.846653         0.723809        -0.782339
 H         0.730847        -0.988030         2.671985
