19
Iteration:  2583
 C         2.758603        -1.745902        -0.531699
 C         2.461057        -0.595476         0.557178
 O         3.328784        -0.695505         1.826996
 C         3.489170         0.374895         0.864268
 C         2.754794         1.582473         1.299357
 C         1.489993         1.189794         1.594243
 C         1.117811        -0.171638         1.015372
 C         0.119997         0.177003        -0.179983
 O         0.407884        -1.104109         1.779981
 H         2.015488        -1.615173        -1.347423
 H         3.747102        -1.633969        -1.039142
 H         2.586947        -2.704201        -0.006324
 H         4.449080         0.298043         0.229731
 H         3.304680         2.514308         1.293584
 H         0.793389         1.919953         2.026492
 H         0.594450         0.979622        -0.687674
 H        -0.104535        -0.619050        -0.909503
 H        -0.881179         0.488778         0.204657
 H         0.965645        -1.438377         2.601668
