19
Iteration:  3265
 C         2.794453        -1.605469        -0.589256
 C         2.507991        -0.539878         0.431334
 O         3.353692        -0.787052         1.661281
 C         3.413322         0.465001         0.818182
 C         2.655444         1.571088         1.368923
 C         1.412524         1.172963         1.484041
 C         1.071780        -0.163028         0.851513
 C        -0.151398        -0.095823        -0.026589
 O         0.811767        -0.952680         2.071712
 H         3.689480        -2.051341        -0.164858
 H         2.009046        -2.389578        -0.506578
 H         2.807691        -1.332738        -1.678758
 H         4.350947         0.583104         0.329272
 H         2.982017         2.426305         2.025599
 H         0.711825         1.541056         2.198855
 H        -0.149415        -0.003121        -1.162851
 H        -0.736016        -1.047252         0.180350
 H        -0.915745         0.689487         0.195427
 H         1.721678        -1.101469         2.292829
