19
Iteration:  1399charge 0 multiplicity 1
 C         2.784071        -1.585616        -0.559899
 C         2.475475        -0.697340         0.616791
 O         3.537521        -0.775135         1.755130
 C         3.448953         0.295033         0.797275
 C         2.746975         1.494661         1.357540
 C         1.533491         1.106434         1.636206
 C         1.040337        -0.184019         0.986482
 C         0.147020         0.144534        -0.229403
 O         0.217466        -0.900710         1.884932
 H         2.294160        -2.585910        -0.586262
 H         2.324312        -1.169820        -1.488077
 H         3.849472        -1.678446        -0.764533
 H         4.325192         0.379425         0.127952
 H         3.116783         2.500241         1.420194
 H         0.818513         1.783938         1.974643
 H         0.837611         0.664937        -0.888165
 H        -0.412791        -0.754525        -0.656926
 H        -0.498874         0.962896         0.046903
 H         0.705863        -1.047789         2.818936
