19
Iteration:  4177charge 0 multiplicity 1
 C         2.681087        -1.637721        -0.597920
 C         2.510095        -0.633116         0.494507
 O         3.533012        -0.736154         1.506856
 C         3.388572         0.497480         0.703964
 C         2.600335         1.617369         1.399508
 C         1.297211         1.232629         1.615202
 C         1.128412        -0.093185         0.992112
 C         0.085243        -0.287672        -0.056384
 O         0.630488        -0.899724         2.062677
 H         2.581087        -1.463521        -1.645418
 H         3.639014        -1.963410        -0.317781
 H         2.067338        -2.528608        -0.454804
 H         4.251083         0.588021         0.062091
 H         3.125255         2.466177         1.910101
 H         0.549275         1.810205         2.200379
 H         0.206578         0.083721        -1.047626
 H        -0.237005        -1.273517         0.173213
 H        -0.818036         0.251542         0.174752
 H         1.294861        -1.004994         2.712805
