19
Iteration:  1669
 C         2.630874        -1.630266        -0.521515
 C         2.487715        -0.661332         0.606722
 O         3.389786        -0.847850         1.722012
 C         3.480050         0.354542         0.863360
 C         2.760394         1.555171         1.352502
 C         1.465255         1.314161         1.546338
 C         1.125948        -0.153759         1.051783
 C         0.335695         0.106224        -0.266664
 O         0.294079        -1.065642         1.888718
 H         1.984463        -2.526977        -0.416929
 H         2.389779        -1.072759        -1.495327
 H         3.625828        -1.994963        -0.700523
 H         4.313831         0.427294         0.178443
 H         3.061696         2.596203         1.495747
 H         0.642112         1.982525         1.976806
 H         0.855760         0.967216        -0.721805
 H         0.167240        -0.613228        -1.126533
 H        -0.574102         0.500665         0.134140
 H         0.716490        -1.145329         2.818158
