19
Iteration:  1007
 C         2.875879        -1.728178        -0.693108
 C         2.506220        -0.714501         0.477322
 O         3.364071        -0.805468         1.767151
 C         3.478191         0.350999         0.854039
 C         2.758082         1.524055         1.507403
 C         1.424281         1.312720         1.503944
 C         1.064806        -0.110829         0.975747
 C         0.040988         0.137385        -0.148334
 O         0.371984        -0.977914         1.911031
 H         2.270475        -2.671044        -0.729565
 H         2.937990        -1.280358        -1.707200
 H         3.942474        -1.998282        -0.474762
 H         4.416326         0.503944         0.358168
 H         3.352137         2.406438         1.867110
 H         0.764720         1.909118         2.136332
 H         0.538872        -0.111468        -1.152510
 H        -0.910175        -0.432210         0.143737
 H        -0.380904         1.188924        -0.179835
 H         1.061011        -1.112101         2.663111
