19
Iteration:  4342
 C         2.582669        -1.738903        -0.566055
 C         2.507126        -0.635222         0.597403
 O         3.598146        -0.670594         1.489632
 C         3.313994         0.521939         0.657635
 C         2.668250         1.646206         1.428228
 C         1.315499         1.249704         1.544429
 C         1.081531        -0.175575         1.140464
 C         0.206708        -0.162493        -0.147476
 O         0.576564        -1.039949         2.100590
 H         1.694789        -1.523223        -1.207789
 H         3.603918        -1.616897        -1.060195
 H         2.450316        -2.750215        -0.017253
 H         4.109399         0.750567        -0.150255
 H         2.997692         2.707628         1.547359
 H         0.472264         1.916905         1.814713
 H         0.634252         0.519341        -0.920197
 H         0.024594        -1.233037        -0.460029
 H        -0.730873         0.418562         0.076778
 H         1.406037        -1.156467         2.581204
