19
Iteration:  3583charge 0 multiplicity 1
 C         2.675864        -1.741333        -0.610720
 C         2.483233        -0.598558         0.425675
 O         3.422361        -0.762745         1.615187
 C         3.410263         0.507302         0.756606
 C         2.685823         1.639142         1.516146
 C         1.388645         1.282496         1.508987
 C         1.088924        -0.100433         0.975402
 C         0.032814        -0.092252        -0.081745
 O         0.655853        -1.028609         2.043602
 H         3.083930        -1.439287        -1.687296
 H         3.466199        -2.422221        -0.194410
 H         1.771637        -2.354787        -0.723127
 H         4.383808         0.582045         0.243643
 H         3.264109         2.512086         1.869914
 H         0.606224         1.862448         1.975793
 H         0.267810         0.612112        -0.888263
 H        -0.146775        -1.058158        -0.588617
 H        -0.934533         0.070400         0.448564
 H         1.361734        -1.321231         2.617266
