19
Iteration:  4479
 C         2.646207        -1.548663        -0.596905
 C         2.507271        -0.596625         0.503862
 O         3.495105        -0.759139         1.516100
 C         3.418611         0.442557         0.767771
 C         2.708824         1.606459         1.375335
 C         1.416722         1.245642         1.488935
 C         1.044671        -0.129404         0.984680
 C         0.025072        -0.344553        -0.069259
 O         0.619823        -0.889943         2.199416
 H         2.442479        -1.152570        -1.582726
 H         3.649989        -1.962037        -0.616836
 H         2.086752        -2.481596        -0.551970
 H         4.171507         0.600294        -0.064105
 H         3.075131         2.607411         1.541638
 H         0.635178         1.790338         1.975125
 H         0.156197         0.283007        -1.037180
 H        -0.178111        -1.484621        -0.078306
 H        -0.977848         0.158534         0.240910
 H         1.458516        -0.940810         2.774635
