19
Iteration:  3240charge 0 multiplicity 1
 C         2.926899        -1.673587        -0.666363
 C         2.561162        -0.677515         0.479990
 O         3.425030        -0.727508         1.622221
 C         3.425713         0.465449         0.756891
 C         2.673589         1.550711         1.391481
 C         1.360550         1.288940         1.483967
 C         1.063499        -0.150812         0.991732
 C        -0.148558        -0.031683         0.042771
 O         0.602653        -1.055975         2.044534
 H         3.990003        -1.675765        -0.816008
 H         2.546458        -2.747674        -0.464080
 H         2.334498        -1.379208        -1.590663
 H         4.404136         0.734257         0.310474
 H         3.078645         2.482574         1.727156
 H         0.561433         1.961237         1.819414
 H         0.063369         0.038534        -0.999441
 H        -0.837812        -0.857489         0.203271
 H        -0.744325         0.887607         0.241872
 H         1.370542        -1.037756         2.632788
