19
Iteration:  2819
 C         2.669238        -1.658900        -0.548379
 C         2.560936        -0.639080         0.584774
 O         3.413533        -0.706311         1.692363
 C         3.526570         0.453907         0.815229
 C         2.695190         1.605209         1.386296
 C         1.420806         1.143556         1.472502
 C         1.114146        -0.166665         0.947760
 C         0.068409         0.029526        -0.144603
 O         0.447821        -1.039882         1.955628
 H         1.999749        -2.469474        -0.637203
 H         2.531252        -1.134431        -1.544745
 H         3.715682        -2.118702        -0.626981
 H         4.608732         0.553344         0.493300
 H         3.133078         2.458256         1.927578
 H         0.587536         1.674457         1.874939
 H         0.496218         0.695567        -0.889089
 H        -0.310533        -0.917963        -0.525699
 H        -0.840379         0.525753         0.317079
 H         1.192685        -1.405328         2.578926
