19
Iteration:  4416
 C         2.699341        -1.795327        -0.438004
 C         2.486506        -0.560638         0.497381
 O         3.490366        -0.719516         1.598793
 C         3.468265         0.512746         0.705051
 C         2.607897         1.621284         1.227601
 C         1.376379         1.266223         1.526403
 C         1.051081        -0.107662         1.008954
 C        -0.131172        -0.044113         0.069395
 O         0.746481        -1.154459         1.957930
 H         3.076292        -1.449375        -1.400676
 H         3.525566        -2.305255         0.030874
 H         1.719903        -2.247222        -0.513385
 H         4.359731         0.786262         0.039240
 H         2.893255         2.635405         1.495908
 H         0.723316         2.001469         1.989148
 H         0.135352         0.700287        -0.659858
 H        -0.119927        -0.973747        -0.472706
 H        -0.937338         0.404968         0.571056
 H         1.699815        -1.152032         2.345781
