19
Iteration:  3606charge 0 multiplicity 1
 C         2.864234        -1.618901        -0.623185
 C         2.473107        -0.686415         0.555354
 O         3.523052        -0.780371         1.546856
 C         3.502369         0.452719         0.790226
 C         2.664127         1.526792         1.364255
 C         1.363417         1.241839         1.529300
 C         1.059551        -0.120225         0.971372
 C        -0.141361        -0.072372        -0.015816
 O         0.565565        -0.959366         2.030655
 H         3.711356        -1.128726        -1.237923
 H         3.286415        -2.578160        -0.153593
 H         2.013757        -1.864327        -1.264543
 H         4.328704         0.636803         0.133026
 H         3.206864         2.416094         1.630348
 H         0.674366         1.948178         1.986644
 H         0.065573         0.559981        -0.846298
 H        -0.457695        -1.038385        -0.452964
 H        -1.015778         0.214352         0.644547
 H         0.908613        -0.881117         2.957370
