19
Iteration:  1920charge 0 multiplicity 1
 C         2.767546        -1.523386        -0.774205
 C         2.591066        -0.645406         0.508525
 O         3.199177        -0.942558         1.907340
 C         3.530947         0.321509         1.027532
 C         2.789623         1.531163         1.390846
 C         1.475498         1.221889         1.389140
 C         1.083790        -0.137992         0.908329
 C         0.019715         0.012706        -0.193723
 O         0.481246        -0.883258         1.992143
 H         2.324979        -2.502715        -0.961242
 H         2.424677        -0.915459        -1.639310
 H         3.902444        -1.655556        -0.881393
 H         4.614441         0.267101         0.722266
 H         3.253356         2.529599         1.571613
 H         0.700303         1.910166         1.734439
 H         0.459920         0.382500        -1.132451
 H        -0.445102        -0.955863        -0.378221
 H        -0.778541         0.703536         0.265998
 H         1.111867        -0.791989         2.738424
