19
Iteration:  1292
 C         2.735053        -1.545085        -0.660384
 C         2.547512        -0.672762         0.528334
 O         3.342979        -0.971036         1.707612
 C         3.544408         0.350031         1.000366
 C         2.759707         1.519019         1.439824
 C         1.418623         1.351780         1.413844
 C         1.062680        -0.119056         0.977964
 C         0.093903        -0.023529        -0.161225
 O         0.420378        -0.875804         1.950247
 H         2.075440        -2.429931        -0.487602
 H         2.363991        -1.033759        -1.586156
 H         3.808391        -1.812197        -0.738915
 H         4.530066         0.333116         0.564236
 H         3.337072         2.447190         1.637157
 H         0.666343         1.932553         1.872096
 H         0.428847         0.673082        -0.941024
 H         0.062977        -0.972479        -0.730984
 H        -0.866083         0.345427         0.236966
 H         0.992374        -1.130265         2.686062
