19
Iteration:  2353charge 0 multiplicity 1
 C         2.616172        -1.730665        -0.555339
 C         2.511400        -0.756214         0.578578
 O         3.397206        -0.809441         1.691147
 C         3.492536         0.455983         0.940504
 C         2.731231         1.612864         1.523629
 C         1.461261         1.262191         1.517201
 C         1.103016        -0.146308         0.935483
 C         0.231710         0.122622        -0.292155
 O         0.375011        -1.010494         1.887880
 H         2.556431        -2.751076        -0.218176
 H         1.846498        -1.560421        -1.299014
 H         3.651274        -1.657859        -1.045387
 H         4.352962         0.636900         0.334744
 H         3.245527         2.585276         1.705514
 H         0.664107         1.731154         2.069867
 H         0.948785         0.568612        -1.041961
 H        -0.077238        -0.889210        -0.537787
 H        -0.650345         0.791176        -0.163923
 H         0.894274        -1.053122         2.658311
