19
Iteration:  2779
 C         2.737565        -1.710132        -0.516992
 C         2.425607        -0.612626         0.412226
 O         3.355996        -0.851763         1.567370
 C         3.459947         0.387182         0.903749
 C         2.718248         1.488271         1.553981
 C         1.399828         1.319726         1.572193
 C         1.090254        -0.001346         0.901318
 C         0.045537        -0.167687        -0.203415
 O         0.615508        -0.822181         1.944424
 H         2.990131        -2.613002         0.059414
 H         1.936925        -1.792177        -1.235864
 H         3.548593        -1.201354        -0.943266
 H         4.473877         0.622878         0.487031
 H         3.120963         2.204488         2.307842
 H         0.547006         1.871740         1.979160
 H         0.047724         0.646992        -0.925390
 H         0.536144        -0.930973        -0.824329
 H        -0.908517        -0.449407         0.273398
 H         1.197459        -0.879935         2.647417
