19
Iteration:  3219
 C         2.795844        -1.603218        -0.682075
 C         2.449205        -0.544307         0.412753
 O         3.483983        -0.733113         1.619527
 C         3.490194         0.423944         0.827492
 C         2.718640         1.668853         1.297915
 C         1.440431         1.254249         1.555109
 C         1.081113        -0.182982         1.086742
 C        -0.008798        -0.149749        -0.055284
 O         0.457117        -1.098416         2.077975
 H         3.731027        -1.379548        -1.108611
 H         2.891245        -2.673743        -0.240188
 H         1.967667        -1.816185        -1.440198
 H         4.400158         0.674073         0.247211
 H         3.067007         2.667641         1.513314
 H         0.613743         1.762039         2.046304
 H         0.566211         0.222273        -0.877863
 H        -0.475361        -1.153344        -0.160838
 H        -0.769784         0.655194         0.145832
 H         0.912816        -0.924870         2.902400
