19
Iteration:  1059charge 0 multiplicity 1
 C         2.578238        -1.595534        -0.568634
 C         2.465930        -0.571725         0.484312
 O         3.260196        -0.890839         1.717628
 C         3.520826         0.302430         1.021455
 C         2.748859         1.510073         1.539187
 C         1.442484         1.400028         1.431126
 C         1.065461        -0.027227         0.923923
 C         0.064903        -0.044337        -0.259312
 O         0.699256        -0.967186         1.917702
 H         1.913315        -2.447787        -0.426433
 H         2.434533        -1.200846        -1.536528
 H         3.648874        -2.034746        -0.605753
 H         4.488805         0.438872         0.556013
 H         3.287222         2.098485         2.331321
 H         0.777197         2.203866         1.723823
 H         0.638722        -0.097672        -1.236374
 H        -0.404399        -1.084157        -0.245663
 H        -0.651481         0.748913        -0.263843
 H         1.433058        -1.444845         2.175669
