19
Iteration:    38
 C         2.398890        -1.774776        -0.343694
 C         2.563533        -0.667161         0.566890
 O         3.477231        -0.738669         1.783791
 C         3.623379         0.445373         0.885414
 C         2.758098         1.638054         1.322270
 C         1.448616         1.384939         1.468713
 C         1.094855        -0.100627         0.987235
 C         0.093225         0.132475        -0.133338
 O         0.491721        -1.221259         1.638947
 H         1.944408        -2.552124         0.279282
 H         1.872800        -1.430783        -1.250984
 H         3.303984        -2.278608        -0.785344
 H         4.643747         0.516423         0.401528
 H         3.282280         2.521314         1.738071
 H         0.771808         2.024764         2.095843
 H        -0.344556        -0.810079        -0.578678
 H        -0.861719         0.591150         0.257809
 H         0.681089         0.625591        -0.928388
 H         1.002365        -1.417754         2.455679
