19
Iteration:  2176charge 0 multiplicity 1
 C         2.965225        -1.500131        -0.693828
 C         2.495036        -0.694920         0.445736
 O         3.361255        -0.959007         1.716532
 C         3.429140         0.277307         1.031934
 C         2.740712         1.471151         1.545934
 C         1.466332         1.285042         1.261520
 C         0.974991        -0.055821         0.968828
 C        -0.078278        -0.049997        -0.082812
 O         0.483722        -0.783374         1.980773
 H         2.352960        -2.358348        -1.077720
 H         3.209492        -0.925298        -1.599111
 H         3.825076        -1.863388        -0.266245
 H         4.409857         0.444149         0.490805
 H         3.217432         2.398038         1.832186
 H         0.815853         2.135683         1.544911
 H         0.160369         0.455879        -1.008887
 H        -0.265174        -1.111967        -0.257624
 H        -0.858460         0.328922         0.495609
 H         1.247013        -1.286571         2.463561
