19
Iteration:  1161charge 0 multiplicity 1
 C         2.665445        -1.763198        -0.459741
 C         2.526785        -0.588925         0.424440
 O         3.272117        -0.764804         1.706928
 C         3.523253         0.358047         0.857519
 C         2.735965         1.531042         1.410203
 C         1.498664         1.149370         1.611980
 C         1.112309        -0.051586         0.932474
 C         0.106799         0.202513        -0.192362
 O         0.495409        -1.036191         1.876106
 H         1.941716        -2.542747        -0.052339
 H         2.388330        -1.577667        -1.576170
 H         3.651561        -2.179003        -0.459698
 H         4.570677         0.471602         0.486080
 H         3.174262         2.460165         1.654633
 H         0.730977         1.799771         2.047003
 H         0.319295         1.252177        -0.602911
 H         0.280491        -0.625754        -1.032991
 H        -1.056280         0.128576         0.176201
 H         1.244815        -1.286427         2.514116
