19
Iteration:  1638
 C         2.732613        -1.676569        -0.620213
 C         2.511026        -0.627960         0.475821
 O         3.202410        -0.909009         1.818087
 C         3.489704         0.297662         1.021023
 C         2.758144         1.537233         1.415273
 C         1.462751         1.283949         1.489713
 C         1.148409        -0.054275         0.875125
 C         0.031941         0.114662        -0.257856
 O         0.600063        -0.970226         1.921284
 H         2.077732        -2.526484        -0.423838
 H         2.448406        -1.244451        -1.569137
 H         3.786416        -2.043634        -0.550683
 H         4.498088         0.432559         0.638514
 H         3.122177         2.473952         1.835041
 H         0.665879         1.993340         1.902973
 H         0.393857         0.638001        -1.129553
 H        -0.472035        -0.739687        -0.690223
 H        -0.704057         0.715504         0.289531
 H         1.287334        -1.002604         2.581651
