19
Iteration:  1780
 C         2.522843        -1.683327        -0.549415
 C         2.545937        -0.667657         0.548045
 O         3.237510        -0.695957         1.821985
 C         3.563553         0.364299         0.893147
 C         2.768758         1.573777         1.335802
 C         1.489311         1.254810         1.590077
 C         1.190818        -0.141509         0.966081
 C         0.233292         0.128102        -0.201861
 O         0.384227        -1.109379         1.795193
 H         2.377904        -2.649341        -0.143614
 H         1.851123        -1.456712        -1.309072
 H         3.602731        -1.765576        -0.869537
 H         4.628325         0.316205         0.560475
 H         3.376641         2.469736         1.456779
 H         0.794569         1.910621         2.071062
 H         0.817695         0.720310        -0.884586
 H        -0.129786        -0.708034        -0.724164
 H        -0.590341         0.755205         0.192889
 H         1.099824        -1.518326         2.293140
