19
Iteration:  3551
 C         2.494647        -1.690077        -0.535669
 C         2.549559        -0.562377         0.498892
 O         3.392380        -0.762916         1.679594
 C         3.449713         0.518151         0.747950
 C         2.648201         1.631597         1.418321
 C         1.366846         1.226917         1.603064
 C         1.117679        -0.128729         0.967153
 C         0.109659        -0.120891        -0.204224
 O         0.734903        -1.064143         1.950162
 H         1.576458        -1.256666        -1.065523
 H         3.418600        -2.029886        -1.053228
 H         2.006064        -2.411016         0.119731
 H         4.519949         0.628689         0.498725
 H         3.195324         2.568083         1.701655
 H         0.651148         1.759164         2.215357
 H         0.580641         0.537358        -0.939605
 H         0.064969        -1.159926        -0.576032
 H        -0.898322         0.343191         0.008509
 H         1.579121        -1.109380         2.563558
