19
Iteration:  2010charge 0 multiplicity 1
 C         2.447132        -1.822573        -0.390550
 C         2.603188        -0.672837         0.546725
 O         3.473012        -0.697832         1.720721
 C         3.500561         0.466559         0.807767
 C         2.690324         1.578816         1.424685
 C         1.441756         1.223705         1.690496
 C         1.143660        -0.159025         1.004332
 C         0.255683         0.262966        -0.283840
 O         0.427130        -1.158074         1.740840
 H         1.687216        -2.542323        -0.024606
 H         2.015830        -1.305254        -1.249617
 H         3.406855        -2.370035        -0.681326
 H         4.321375         0.722982         0.168590
 H         3.217325         2.495817         1.611165
 H         0.598884         1.749340         2.137213
 H         0.843237         0.911223        -0.944080
 H        -0.044126        -0.569662        -0.944931
 H        -0.777048         0.600837        -0.078905
 H         0.906927        -1.401357         2.525425
