19
Iteration:  4007charge 0 multiplicity 1
 C         2.681534        -1.587185        -0.595429
 C         2.520492        -0.655438         0.569797
 O         3.411440        -0.713954         1.738528
 C         3.466413         0.456160         0.731522
 C         2.695687         1.657761         1.225869
 C         1.395018         1.262440         1.543407
 C         1.080349        -0.138154         1.066320
 C         0.004265        -0.214589        -0.074199
 O         0.635327        -1.051200         1.967852
 H         2.852254        -2.725937        -0.407422
 H         1.885578        -1.523956        -1.344275
 H         3.400277        -1.192978        -1.289740
 H         4.434701         0.651922         0.268279
 H         3.128140         2.621921         1.526890
 H         0.655058         1.619020         2.254613
 H         0.475925        -0.024929        -1.049989
 H        -0.633683        -1.113437        -0.253773
 H        -0.678223         0.666148         0.170437
 H         1.171566        -0.975497         2.717846
