19
Iteration:  2074charge 0 multiplicity 1
 C         2.828087        -1.745322        -0.566255
 C         2.487733        -0.623018         0.443764
 O         3.405169        -0.729604         1.685015
 C         3.518463         0.356154         0.887009
 C         2.713472         1.500854         1.453779
 C         1.486710         1.125283         1.632123
 C         1.064779        -0.129397         0.955372
 C         0.028730         0.113245        -0.252117
 O         0.375954        -0.905664         1.900726
 H         2.189498        -2.564472        -0.384178
 H         2.761954        -1.361787        -1.551195
 H         3.854725        -2.240812        -0.571566
 H         4.364464         0.665206         0.312372
 H         3.212082         2.331563         1.919486
 H         0.820537         1.710003         2.257630
 H         0.816301         0.145575        -0.965730
 H        -0.608910        -0.743377        -0.238477
 H        -0.558268         1.055399        -0.148723
 H         0.669115        -0.873776         2.848780
