19
Iteration:   768
 C         2.707055        -1.688096        -0.572429
 C         2.454727        -0.641695         0.461671
 O         3.141221        -0.863225         1.794724
 C         3.462597         0.280768         0.982364
 C         2.804399         1.452041         1.561109
 C         1.494932         1.431186         1.266559
 C         1.157949        -0.053037         0.879794
 C         0.009237         0.036313        -0.163468
 O         0.654614        -0.926764         1.960592
 H         1.868583        -2.304501        -0.955872
 H         3.000304        -1.175891        -1.460024
 H         3.544238        -2.401343        -0.163860
 H         4.478979         0.205219         0.518995
 H         3.481699         2.256943         1.937724
 H         0.617528         2.155095         1.339994
 H         0.094696        -0.811001        -0.840393
 H        -0.931686         0.086060         0.363696
 H         0.162329         0.906943        -0.795620
 H         1.413146        -0.955784         2.487384
