19
Iteration:   784
 C         2.763627        -1.706769        -0.546827
 C         2.490310        -0.664536         0.468037
 O         3.219638        -0.921839         1.690809
 C         3.530521         0.334801         0.942748
 C         2.809024         1.455008         1.583001
 C         1.497840         1.362604         1.433174
 C         1.024186         0.028810         0.837661
 C        -0.029284        -0.091855        -0.236248
 O         0.589013        -0.751224         1.952482
 H         1.890012        -2.312630        -0.792759
 H         3.206766        -1.355747        -1.524209
 H         3.414385        -2.407422        -0.153906
 H         4.529830         0.391688         0.499468
 H         3.226078         2.147668         2.286828
 H         0.857965         1.983961         2.014188
 H        -0.260612        -1.134257        -0.545922
 H        -0.942708         0.371076         0.203392
 H         0.254345         0.491161        -1.144120
 H         1.405975        -0.885121         2.581447
