19
Iteration:  1667
 C         2.643792        -1.639930        -0.527142
 C         2.492108        -0.665292         0.596722
 O         3.364925        -0.858974         1.720120
 C         3.492643         0.347371         0.879067
 C         2.756152         1.554722         1.356891
 C         1.451498         1.329711         1.532659
 C         1.131546        -0.146329         1.041118
 C         0.320192         0.108411        -0.235810
 O         0.318064        -1.070116         1.893889
 H         2.000656        -2.563405        -0.450179
 H         2.366023        -0.991566        -1.460504
 H         3.606546        -2.001887        -0.671930
 H         4.300018         0.478389         0.158936
 H         3.062079         2.630442         1.442120
 H         0.635316         1.977150         1.935096
 H         0.929876         0.923627        -0.720691
 H         0.186641        -0.555120        -1.149738
 H        -0.604923         0.513907         0.119642
 H         0.690908        -1.090038         2.756537
