19
Iteration:   272charge 0 multiplicity 1
 C         2.477440        -1.660723        -0.691388
 C         2.526114        -0.632755         0.497408
 O         3.229547        -0.907654         1.792033
 C         3.512817         0.318933         0.920666
 C         2.774829         1.518097         1.407469
 C         1.462144         1.326008         1.437037
 C         1.130655        -0.076430         0.975424
 C         0.259525        -0.039208        -0.228756
 O         0.554411        -0.812159         2.054715
 H         1.905475        -2.524306        -0.340819
 H         1.923140        -1.197029        -1.488110
 H         3.461470        -1.946317        -1.169786
 H         4.522895         0.325303         0.512647
 H         3.190961         2.419104         1.843802
 H         0.680771         1.939414         1.828632
 H         0.009295        -1.096796        -0.432148
 H        -0.633353         0.608281        -0.219870
 H         0.892509         0.203771        -1.077064
 H         1.338035        -1.126270         2.688069
