19
Iteration:  4507charge 0 multiplicity 1
 C         2.777019        -1.550382        -0.726919
 C         2.610833        -0.666356         0.481027
 O         3.487382        -0.766087         1.585142
 C         3.437912         0.406011         0.776830
 C         2.690125         1.552500         1.367687
 C         1.339944         1.357512         1.380795
 C         1.062302        -0.158524         1.010932
 C        -0.083778        -0.296875         0.030130
 O         0.561191        -0.894262         2.202876
 H         1.910797        -1.539539        -1.433650
 H         3.691362        -1.331824        -1.356892
 H         2.822517        -2.637072        -0.475637
 H         4.298535         0.606517         0.201406
 H         3.117184         2.524075         1.706060
 H         0.605517         2.031921         1.895910
 H         0.137605        -0.002913        -0.971289
 H        -0.479914        -1.277293         0.220704
 H        -0.649960         0.549661         0.382648
 H         1.321295        -0.951060         2.877120
