19
Iteration:   718charge 0 multiplicity 1
 C         2.665861        -1.621259        -0.543262
 C         2.492982        -0.701973         0.611208
 O         3.316953        -0.877021         1.849296
 C         3.556396         0.317087         0.871415
 C         2.849732         1.541079         1.363486
 C         1.522266         1.293300         1.500686
 C         1.091789        -0.106064         0.946520
 C         0.129597         0.042689        -0.243008
 O         0.357393        -0.899663         1.842235
 H         2.170040        -2.572956        -0.339748
 H         2.074183        -1.240467        -1.414536
 H         3.638130        -1.896278        -0.798722
 H         4.496033         0.198789         0.375067
 H         3.252186         2.533700         1.555527
 H         0.829891         2.036427         1.819114
 H         0.427613        -0.475811        -1.154954
 H        -0.807598        -0.386787         0.155623
 H        -0.032351         1.108449        -0.508554
 H         1.015662        -0.927493         2.666004
