19
Iteration:   129
 C         2.567933        -1.652052        -0.615059
 C         2.598187        -0.693678         0.626710
 O         3.537874        -0.789847         1.730760
 C         3.581973         0.379274         0.834517
 C         2.734509         1.569446         1.387249
 C         1.432384         1.197632         1.552986
 C         1.201111        -0.146953         0.959604
 C         0.140712        -0.042516        -0.225671
 O         0.222671        -0.826741         1.894008
 H         2.228426        -2.595737        -0.165848
 H         1.922354        -1.119954        -1.332763
 H         3.459900        -1.882604        -1.166118
 H         4.454617         0.442912         0.245336
 H         3.182390         2.263028         2.045443
 H         0.814448         1.739575         2.248941
 H        -0.089889        -1.094077        -0.420421
 H        -0.784134         0.367645         0.169807
 H         0.431304         0.462087        -1.172569
 H         0.693509        -0.914993         2.804400
