19
Iteration:  2479charge 0 multiplicity 1
 C         2.753069        -1.552268        -0.671165
 C         2.504166        -0.656564         0.488398
 O         3.269665        -0.934246         1.760385
 C         3.578837         0.364203         1.081991
 C         2.735947         1.538989         1.414568
 C         1.422760         1.286545         1.398672
 C         1.040669        -0.061707         0.950567
 C         0.048812        -0.049300        -0.210814
 O         0.517606        -0.917549         1.981879
 H         1.802260        -1.759570        -1.328005
 H         3.498789        -1.007134        -1.304718
 H         3.204498        -2.397084        -0.199886
 H         4.595566         0.395689         0.646783
 H         3.291566         2.362714         1.895549
 H         0.749598         2.078105         1.404462
 H         0.548014         0.667032        -0.973510
 H         0.067206        -1.101168        -0.632566
 H        -0.984743         0.275158         0.138640
 H         1.172058        -1.195566         2.556111
