19
Iteration:  3611charge 0 multiplicity 1
 C         2.867162        -1.565378        -0.632167
 C         2.493382        -0.636419         0.510961
 O         3.544355        -0.785375         1.591697
 C         3.483284         0.419445         0.762948
 C         2.688667         1.559408         1.357972
 C         1.387823         1.188998         1.497823
 C         1.053534        -0.123954         0.999692
 C        -0.147018        -0.083055        -0.027087
 O         0.518375        -0.977572         2.071270
 H         3.779881        -1.335575        -1.114042
 H         3.147080        -2.548205        -0.286017
 H         2.159536        -1.903558        -1.426733
 H         4.408323         0.485367         0.132205
 H         3.102091         2.554081         1.632810
 H         0.614543         1.799011         1.993421
 H        -0.093871         0.670857        -0.880680
 H        -0.491196        -1.070427        -0.343565
 H        -0.920056         0.328709         0.598964
 H         0.933528        -0.751460         2.941604
