19
Iteration:  2374charge 0 multiplicity 1
 C         2.479256        -1.581357        -0.581796
 C         2.579503        -0.612460         0.510265
 O         3.388876        -0.774436         1.797480
 C         3.554665         0.366335         0.942698
 C         2.691081         1.478229         1.451944
 C         1.404457         1.200570         1.594934
 C         1.110854        -0.105230         0.932694
 C         0.251663        -0.043090        -0.412385
 O         0.479538        -0.974271         1.917130
 H         1.937608        -2.434185        -0.239313
 H         1.992097        -1.207863        -1.441580
 H         3.432110        -2.040590        -0.967477
 H         4.550821         0.591980         0.667730
 H         3.120738         2.373662         1.969341
 H         0.595731         1.848164         1.830029
 H         0.855617         0.490888        -1.153358
 H        -0.277757        -0.916501        -0.637206
 H        -0.393831         0.709593        -0.018982
 H         0.995970        -0.744498         2.797829
