19
Iteration:  1134charge 0 multiplicity 1
 C         2.868727        -1.730992        -0.525247
 C         2.477081        -0.788617         0.606145
 O         3.485568        -0.888638         1.631601
 C         3.387672         0.317262         0.765741
 C         2.825656         1.599854         1.495927
 C         1.471283         1.331580         1.577291
 C         1.050381        -0.059532         0.943344
 C         0.009111         0.100366        -0.162785
 O         0.292896        -0.894240         1.895649
 H         2.432583        -2.693621        -0.589383
 H         2.685060        -1.255479        -1.424125
 H         3.998228        -1.883620        -0.529806
 H         4.298085         0.481903         0.237958
 H         3.471817         2.450997         1.941439
 H         0.710077         2.083467         1.827061
 H         0.070292         1.118176        -0.443420
 H         0.261794        -0.391621        -1.040576
 H        -0.874955        -0.066989         0.218416
 H         0.964329        -1.427642         2.460755
