19
Iteration:  4737
 C         2.802294        -1.803306        -0.605689
 C         2.546552        -0.673977         0.504391
 O         3.301023        -0.769367         1.647002
 C         3.442983         0.514814         0.719392
 C         2.719218         1.578156         1.365754
 C         1.412808         1.282801         1.506830
 C         1.128836        -0.056975         0.903117
 C        -0.046735        -0.087756        -0.111641
 O         0.578651        -0.936324         2.132979
 H         3.724241        -1.429069        -1.101936
 H         2.786357        -2.776890        -0.137990
 H         1.964360        -1.852159        -1.342101
 H         4.497156         0.572643         0.359897
 H         3.097499         2.498891         1.786462
 H         0.750004         1.780732         2.208675
 H         0.072305         0.866751        -0.641216
 H         0.141463        -1.107223        -0.511327
 H        -1.020137        -0.053466         0.436015
 H         1.397889        -1.117247         2.574171
