19
Iteration:  1389
 C         2.793187        -1.638738        -0.590697
 C         2.511415        -0.789799         0.566762
 O         3.482201        -0.779663         1.729775
 C         3.557166         0.348909         0.786616
 C         2.769624         1.492814         1.395769
 C         1.438281         1.165808         1.617910
 C         1.029180        -0.170697         0.981668
 C         0.107079         0.196758        -0.230097
 O         0.240317        -0.888210         1.943610
 H         2.382934        -2.656652        -0.417163
 H         2.534312        -1.051549        -1.484805
 H         3.910923        -1.801906        -0.541890
 H         4.429076         0.446318         0.147272
 H         3.156880         2.414321         1.811537
 H         0.708329         1.853500         1.936038
 H         0.709045         0.495318        -1.096926
 H        -0.467602        -0.720836        -0.625571
 H        -0.726317         0.872549         0.005448
 H         0.885234        -1.296454         2.660056
