19
Iteration:  2933charge 0 multiplicity 1
 C         2.680763        -1.696236        -0.520746
 C         2.461476        -0.533990         0.440923
 O         3.437364        -0.703818         1.559417
 C         3.534192         0.489230         0.808941
 C         2.690446         1.498939         1.501653
 C         1.415105         1.192150         1.556144
 C         1.101587        -0.109982         0.999121
 C         0.123058        -0.114301        -0.108089
 O         0.467487        -1.010004         1.978506
 H         2.657515        -1.372206        -1.614989
 H         3.704314        -1.851748        -0.335875
 H         2.137017        -2.568557        -0.302205
 H         4.280007         0.539816         0.058949
 H         3.023544         2.487674         1.774293
 H         0.651589         1.947700         1.775689
 H         0.215659         0.797009        -0.768390
 H         0.146463        -1.016645        -0.744833
 H        -0.915252        -0.135834         0.177127
 H         1.102668        -0.982142         2.736861
