19
Iteration:  3437
 C         2.486106        -1.690346        -0.498743
 C         2.502594        -0.539374         0.484214
 O         3.553172        -0.758011         1.574600
 C         3.449234         0.518592         0.877120
 C         2.663758         1.661119         1.390071
 C         1.411251         1.254400         1.606127
 C         1.114628        -0.191779         1.027916
 C         0.108979        -0.103415        -0.215191
 O         0.618086        -1.106846         1.964843
 H         1.742165        -1.622032        -1.213495
 H         3.467322        -1.938033        -0.907436
 H         2.229426        -2.675975         0.019203
 H         4.290022         0.756496         0.270420
 H         3.007722         2.693918         1.447174
 H         0.596822         1.827721         2.094798
 H         0.487542         0.618691        -0.959769
 H        -0.039314        -0.982502        -0.836388
 H        -0.848021         0.299593         0.126204
 H         1.059311        -0.920633         2.768423
