19
Iteration:  2485
 C         2.680413        -1.542736        -0.646449
 C         2.528814        -0.601995         0.529329
 O         3.253927        -0.957264         1.686724
 C         3.535020         0.340747         1.069510
 C         2.751747         1.571004         1.447417
 C         1.447283         1.298244         1.440119
 C         1.105439        -0.044255         0.990789
 C         0.108518        -0.126641        -0.260990
 O         0.498217        -0.927376         1.959577
 H         1.785499        -1.732481        -1.137948
 H         3.455170        -1.055738        -1.238802
 H         3.126554        -2.462357        -0.191597
 H         4.534097         0.665600         0.725730
 H         3.326551         2.423711         1.774325
 H         0.656959         2.109611         1.438033
 H         0.427416         0.511002        -1.047884
 H        -0.026790        -1.147810        -0.595079
 H        -0.857462         0.332345        -0.083764
 H         1.204829        -1.095941         2.682873
