19
Iteration:  4524charge 0 multiplicity 1
 C         2.747165        -1.641562        -0.783014
 C         2.477627        -0.671113         0.457991
 O         3.421323        -0.758000         1.657426
 C         3.459582         0.463837         0.856617
 C         2.695603         1.641178         1.351446
 C         1.398736         1.190055         1.440277
 C         1.120540        -0.196248         0.962737
 C        -0.108328        -0.210762         0.086193
 O         0.684471        -0.840146         2.127033
 H         1.825400        -1.908588        -1.295373
 H         3.446909        -1.150811        -1.435179
 H         3.241582        -2.567430        -0.535606
 H         4.472189         0.667395         0.356893
 H         3.012021         2.663273         1.614975
 H         0.513326         1.766174         1.679021
 H         0.057052         0.022428        -1.040224
 H        -0.511475        -1.261401         0.123228
 H        -1.070919         0.376211         0.161448
 H         1.398107        -0.805863         2.856812
