19
Iteration:  1571charge 0 multiplicity 1
 C         2.657362        -1.517766        -0.722136
 C         2.567058        -0.671093         0.569765
 O         3.282961        -1.063651         1.658661
 C         3.551522         0.328613         1.070530
 C         2.752335         1.448180         1.575819
 C         1.446455         1.306302         1.394280
 C         1.088169        -0.052151         0.857049
 C         0.158864        -0.151498        -0.311068
 O         0.416729        -0.674128         2.114162
 H         2.266370        -2.532254        -0.784506
 H         2.387368        -0.930048        -1.640970
 H         3.675707        -1.683707        -0.880766
 H         4.462837         0.433205         0.481129
 H         3.200306         2.328550         2.103970
 H         0.714166         2.138969         1.587886
 H         0.612241         0.385052        -1.132961
 H         0.067056        -1.194202        -0.678029
 H        -0.753896         0.272591        -0.052005
 H         1.064353        -0.573102         2.928279
