19
Iteration:  1941
 C         2.861734        -1.643376        -0.580813
 C         2.476742        -0.695758         0.560772
 O         3.296828        -0.895068         1.677393
 C         3.466050         0.319600         0.942747
 C         2.736709         1.487283         1.488890
 C         1.412423         1.293617         1.467717
 C         1.160239        -0.061033         0.871316
 C         0.049907         0.092132        -0.173713
 O         0.467636        -0.853505         1.931557
 H         2.525678        -2.670180        -0.494794
 H         2.321616        -1.322383        -1.488699
 H         3.960884        -1.736253        -0.678509
 H         4.421538         0.270697         0.356783
 H         3.297911         2.323360         1.972958
 H         0.551003         1.839759         1.855773
 H         0.418930         0.741637        -0.974095
 H        -0.252554        -0.851203        -0.653338
 H        -0.899740         0.408921         0.317885
 H         1.013735        -1.401950         2.619120
