19
Iteration:  4752
 C         2.864956        -1.646934        -0.651305
 C         2.531002        -0.697366         0.484804
 O         3.308968        -0.786431         1.745649
 C         3.431082         0.410005         0.754140
 C         2.733368         1.616113         1.343587
 C         1.430611         1.212181         1.460415
 C         1.051112        -0.229522         0.946943
 C        -0.095757        -0.098761        -0.086784
 O         0.643591        -0.797824         2.108738
 H         3.839098        -1.442492        -1.147666
 H         2.943549        -2.775489        -0.399471
 H         2.052254        -1.707091        -1.460057
 H         4.333698         0.463442         0.202892
 H         3.240916         2.394768         1.928401
 H         0.553634         1.703336         1.933367
 H         0.046302         0.706834        -0.791923
 H        -0.507823        -0.913514        -0.684200
 H        -0.969975         0.075527         0.515311
 H         1.432549        -0.809209         2.714621
