19
Iteration:  4299
 C         2.721614        -1.685902        -0.553644
 C         2.565457        -0.642247         0.484666
 O         3.469963        -0.725872         1.606282
 C         3.429315         0.555483         0.714209
 C         2.680349         1.646264         1.410031
 C         1.372460         1.190609         1.591090
 C         1.106881        -0.136217         0.929267
 C        -0.124394        -0.218246        -0.063592
 O         0.678077        -0.938541         2.033590
 H         1.727447        -1.903906        -1.020877
 H         3.478360        -1.451697        -1.357999
 H         2.880733        -2.620634         0.018770
 H         4.362391         0.690798         0.051545
 H         3.092034         2.649782         1.667370
 H         0.581293         1.686056         2.178191
 H         0.048777         0.092844        -1.077594
 H        -0.223235        -1.298229        -0.272327
 H        -1.059998         0.332767         0.093035
 H         1.293418        -0.925561         2.835347
