19
Iteration:  3371
 C         2.890476        -1.666177        -0.574082
 C         2.472785        -0.623405         0.453231
 O         3.342883        -0.798123         1.514776
 C         3.424692         0.469243         0.788389
 C         2.681941         1.547751         1.337444
 C         1.399463         1.256261         1.561182
 C         1.059187        -0.089772         1.061566
 C        -0.069684        -0.060075         0.011241
 O         0.642378        -1.020784         2.002228
 H         3.635903        -1.243675        -1.194989
 H         3.338840        -2.596118        -0.087101
 H         2.079099        -1.995322        -1.335108
 H         4.367895         0.648841         0.295911
 H         3.049800         2.622171         1.488354
 H         0.667219         1.780534         2.171251
 H         0.399808         0.392720        -0.839014
 H        -0.358448        -1.106752        -0.161795
 H        -0.940257         0.517231         0.416586
 H         1.248083        -0.793652         2.799037
