19
Iteration:  2268charge 0 multiplicity 1
 C         2.528430        -1.749687        -0.378750
 C         2.496008        -0.609314         0.571772
 O         3.430773        -0.816054         1.671457
 C         3.529702         0.372979         0.903476
 C         2.685593         1.568650         1.416367
 C         1.405382         1.286202         1.612283
 C         1.122571        -0.113756         0.980993
 C         0.210589         0.205570        -0.310457
 O         0.502652        -1.096724         1.782493
 H         2.031296        -2.614634         0.017513
 H         2.062323        -1.573381        -1.340551
 H         3.644719        -1.970806        -0.525643
 H         4.429368         0.631353         0.404796
 H         3.034097         2.602496         1.624493
 H         0.592840         1.947436         1.840705
 H         0.524002         0.928934        -1.037921
 H         0.124464        -0.690083        -0.947024
 H        -0.787977         0.279281         0.184671
 H         1.232639        -1.335746         2.465561
