19
Iteration:  4418
 C         2.675277        -1.775798        -0.433386
 C         2.491207        -0.569272         0.482760
 O         3.485406        -0.720331         1.595792
 C         3.475364         0.522186         0.709120
 C         2.617545         1.613550         1.228482
 C         1.360512         1.256049         1.542650
 C         1.054778        -0.106062         1.016330
 C        -0.115045        -0.054997         0.057781
 O         0.760974        -1.143069         1.968047
 H         3.117142        -1.423417        -1.400497
 H         3.527445        -2.265395         0.080053
 H         1.670179        -2.258284        -0.504352
 H         4.382741         0.756125         0.086715
 H         2.966130         2.606663         1.436266
 H         0.673218         1.987913         1.918234
 H         0.125206         0.667356        -0.698833
 H        -0.241708        -0.939810        -0.601563
 H        -1.014239         0.346560         0.557745
 H         1.702506        -1.163098         2.355754
