19
Iteration:   168
 C         2.646442        -1.633586        -0.549157
 C         2.460465        -0.611453         0.480928
 O         3.192811        -0.934583         1.702703
 C         3.487014         0.281566         0.958783
 C         2.775279         1.566166         1.481899
 C         1.434058         1.452270         1.407416
 C         1.077076         0.014737         0.900503
 C         0.099862        -0.065043        -0.187189
 O         0.701193        -0.977310         1.983786
 H         1.960308        -2.489667        -0.363408
 H         2.435911        -1.288842        -1.633075
 H         3.673727        -2.021783        -0.532381
 H         4.464561         0.266519         0.375428
 H         3.261052         2.420180         1.947044
 H         0.607618         2.067368         1.692194
 H        -0.259178        -1.097675        -0.325647
 H        -0.817081         0.538472        -0.001146
 H         0.558121         0.411160        -1.093686
 H         1.605589        -1.139387         2.534721
