19
Iteration:  1242charge 0 multiplicity 1
 C         2.834885        -1.712129        -0.666684
 C         2.547501        -0.717026         0.476682
 O         3.400049        -0.810603         1.689938
 C         3.450896         0.411734         0.781095
 C         2.730147         1.522939         1.512675
 C         1.442361         1.194325         1.637712
 C         1.050016        -0.116346         0.943605
 C         0.130007         0.032498        -0.195451
 O         0.329037        -0.833348         1.955745
 H         2.349426        -2.652933        -0.534507
 H         2.632996        -1.308386        -1.602403
 H         3.955816        -1.872163        -0.535967
 H         4.331852         0.479110         0.179005
 H         3.238973         2.104421         2.256237
 H         0.715043         1.794465         2.207193
 H         0.632341         0.026102        -1.159505
 H        -0.681366        -0.678431        -0.129351
 H        -0.380798         1.066025        -0.169289
 H         0.864011        -0.913693         2.778640
