19
Iteration:  3879
 C         2.823361        -1.636670        -0.641690
 C         2.452544        -0.726386         0.558066
 O         3.477320        -0.742697         1.652870
 C         3.372909         0.383410         0.819638
 C         2.653357         1.606024         1.273683
 C         1.338035         1.331881         1.446994
 C         1.073578        -0.078642         0.983574
 C         0.040361        -0.070212         0.004933
 O         0.603853        -1.046170         2.081288
 H         3.198103        -2.635996        -0.483531
 H         1.909221        -1.787291        -1.239825
 H         3.628391        -1.144386        -1.161817
 H         4.364245         0.484106         0.347352
 H         3.192643         2.516982         1.510055
 H         0.454214         1.820527         1.713098
 H         0.262490         0.637542        -0.796565
 H        -0.177258        -1.051187        -0.415467
 H        -0.966276         0.226241         0.290802
 H         1.347501        -1.026410         2.651060
