19
Iteration:   854
 C         2.624734        -1.574548        -0.530024
 C         2.443174        -0.716444         0.672043
 O         3.388856        -0.928452         1.728358
 C         3.531740         0.276687         0.973994
 C         2.773056         1.542278         1.321358
 C         1.466496         1.256849         1.534870
 C         1.095258        -0.118805         0.935707
 C         0.148437         0.117476        -0.311408
 O         0.454797        -0.929930         1.934620
 H         2.164856        -2.609005        -0.502021
 H         2.284951        -0.997904        -1.385643
 H         3.789100        -1.771756        -0.692692
 H         4.336120         0.363867         0.239591
 H         3.264166         2.500969         1.289204
 H         0.762936         2.045811         1.796637
 H        -0.969884         0.194070        -0.005526
 H         0.434020         1.097145        -0.842939
 H         0.205567        -0.778277        -1.004039
 H         0.794272        -0.592555         2.849067
