19
Iteration:  3389
 C         2.694479        -1.700343        -0.554583
 C         2.492471        -0.537233         0.395719
 O         3.361893        -0.696696         1.649433
 C         3.455400         0.459286         0.775005
 C         2.735729         1.648827         1.405889
 C         1.448931         1.253559         1.635633
 C         1.075451        -0.133103         0.954584
 C        -0.098357        -0.073134        -0.127120
 O         0.702019        -1.136236         2.023084
 H         3.243336        -1.495382        -1.504446
 H         3.260330        -2.343903         0.100428
 H         1.864748        -2.256868        -0.815744
 H         4.401425         0.430749         0.161363
 H         3.150472         2.574142         1.797750
 H         0.605986         1.880613         1.897830
 H         0.097307         0.341622        -1.123646
 H        -0.550672        -1.054169        -0.338028
 H        -0.855277         0.590266         0.351878
 H         1.674303        -1.219830         2.390439
