19
Iteration:  1505
 C         2.705850        -1.725310        -0.509434
 C         2.481774        -0.597176         0.476165
 O         3.186580        -0.893968         1.695650
 C         3.603072         0.356289         1.011464
 C         2.823438         1.571200         1.480830
 C         1.522656         1.314733         1.477350
 C         1.079462        -0.094483         0.895651
 C         0.022312         0.114023        -0.129108
 O         0.503009        -1.003760         1.788350
 H         2.035218        -2.569011        -0.389376
 H         2.820043        -1.417154        -1.586489
 H         3.602076        -2.163478        -0.303484
 H         4.599817         0.486804         0.480831
 H         3.433960         2.375016         1.847655
 H         0.785905         1.993536         1.814506
 H         0.457306         0.608462        -0.988342
 H        -0.232310        -0.873762        -0.536712
 H        -0.808686         0.536110         0.354201
 H         0.963325        -0.755950         2.622226
