19
Iteration:  3865charge 0 multiplicity 1
 C         2.818505        -1.660115        -0.615762
 C         2.538753        -0.671469         0.478228
 O         3.336080        -0.692948         1.683007
 C         3.438376         0.475628         0.729339
 C         2.693844         1.580980         1.367761
 C         1.370613         1.286559         1.450530
 C         1.106169        -0.250597         1.015179
 C        -0.060667        -0.065323        -0.075726
 O         0.621186        -1.019817         2.078792
 H         2.946735        -2.687734        -0.090247
 H         2.031606        -1.755821        -1.333198
 H         3.665895        -1.365636        -1.214902
 H         4.303141         0.626858         0.141672
 H         3.126371         2.579314         1.634838
 H         0.772436         2.012046         2.023684
 H         0.295422         0.472556        -0.937257
 H        -0.405673        -1.084431        -0.409224
 H        -0.757148         0.531278         0.583627
 H         1.396649        -1.140908         2.717195
