19
Iteration:   809
 C         2.701070        -1.658028        -0.640261
 C         2.516123        -0.678379         0.443874
 O         3.372635        -0.925805         1.635990
 C         3.534560         0.371569         0.959536
 C         2.798958         1.504659         1.584889
 C         1.515369         1.217489         1.572035
 C         1.118616        -0.049643         0.862247
 C         0.091775        -0.154665        -0.295844
 O         0.335225        -0.600596         2.024398
 H         1.797919        -2.336218        -0.720339
 H         2.902702        -1.325670        -1.677971
 H         3.502639        -2.437129        -0.333148
 H         4.607810         0.524641         0.651619
 H         3.295358         2.429544         1.959274
 H         0.671948         1.854889         1.987324
 H        -0.591884        -1.001989         0.127261
 H        -0.577370         0.786794        -0.248237
 H         0.378693        -0.479738        -1.360613
 H         0.927111        -1.085865         2.709127
