19
Iteration:  2148
 C         2.784127        -1.457842        -0.697832
 C         2.612567        -0.655375         0.486733
 O         3.064934        -0.968454         1.765518
 C         3.524685         0.277197         1.055711
 C         2.803926         1.583649         1.471134
 C         1.454579         1.281641         1.375996
 C         1.028150        -0.120183         0.898732
 C        -0.007601        -0.176154        -0.227142
 O         0.660227        -0.794934         2.020596
 H         2.145395        -2.366748        -0.667411
 H         2.392983        -0.737618        -1.448741
 H         3.837563        -1.798755        -1.092731
 H         4.575631         0.234993         0.782629
 H         3.207454         2.470939         1.967113
 H         0.729013         2.030382         1.705983
 H         0.187787         0.712749        -0.878553
 H         0.005389        -1.125278        -0.780411
 H        -1.023070        -0.153472         0.345524
 H         1.488237        -0.720247         2.632601
