19
Iteration:  4599charge 0 multiplicity 1
 C         2.617047        -1.726985        -0.546055
 C         2.606868        -0.611005         0.514392
 O         3.506256        -0.711697         1.612348
 C         3.526531         0.545277         0.682416
 C         2.640128         1.624824         1.346846
 C         1.433012         1.158994         1.509310
 C         1.077495        -0.200313         0.992603
 C         0.025781        -0.131967        -0.031741
 O         0.517583        -0.944940         2.036516
 H         2.873643        -2.642111         0.028443
 H         1.613900        -1.759661        -0.979551
 H         3.331194        -1.619094        -1.377177
 H         4.574380         0.591687         0.259157
 H         3.074867         2.518976         1.806124
 H         0.680770         1.762569         2.056345
 H        -0.057239         0.717790        -0.721187
 H        -0.123602        -1.090791        -0.575979
 H        -1.005909         0.215101         0.145843
 H         1.103255        -0.958924         2.858063
