19
Iteration:  4333charge 0 multiplicity 1
 C         2.526745        -1.694397        -0.547601
 C         2.486046        -0.648409         0.517093
 O         3.582479        -0.634518         1.498554
 C         3.396685         0.524393         0.688058
 C         2.602425         1.592058         1.476160
 C         1.344987         1.281975         1.480793
 C         1.167524        -0.153205         1.089813
 C         0.180311        -0.142938        -0.143092
 O         0.569332        -1.037618         2.150802
 H         1.659627        -1.765204        -1.230620
 H         3.410491        -1.749527        -1.205616
 H         2.662793        -2.666071        -0.086089
 H         4.156787         0.831288        -0.077796
 H         3.057027         2.587105         1.634710
 H         0.407554         1.730175         1.764845
 H         0.878330         0.316807        -0.834208
 H         0.104093        -1.231546        -0.339224
 H        -0.884190         0.124912        -0.004987
 H         1.228436        -1.395775         2.757665
