19
Iteration:  4494
 C         2.731984        -1.524983        -0.649993
 C         2.439074        -0.650091         0.523732
 O         3.533594        -0.820588         1.535689
 C         3.499536         0.513307         0.723295
 C         2.685980         1.590900         1.347403
 C         1.405166         1.301006         1.403777
 C         1.076590        -0.196172         1.069600
 C        -0.085929        -0.310856        -0.009697
 O         0.573461        -0.880566         2.186753
 H         2.125896        -1.149638        -1.477020
 H         3.810696        -1.423860        -0.842551
 H         2.501744        -2.536042        -0.308792
 H         4.444457         0.637867         0.203496
 H         3.203718         2.421896         1.829883
 H         0.645250         1.996072         1.804465
 H         0.330384        -0.148973        -0.949054
 H        -0.520102        -1.273706        -0.196851
 H        -1.003463         0.170112         0.190267
 H         1.284640        -1.017596         2.789168
