19
Iteration:  2524
 C         2.660657        -1.709540        -0.557530
 C         2.482280        -0.619785         0.496525
 O         3.369068        -0.737465         1.685121
 C         3.495644         0.448179         0.935309
 C         2.748902         1.411424         1.593179
 C         1.433558         1.216347         1.580064
 C         1.104977        -0.053076         0.867814
 C         0.122363        -0.056573        -0.353436
 O         0.497447        -0.848202         1.951978
 H         1.719882        -1.844511        -1.177624
 H         3.305308        -1.388209        -1.378051
 H         2.997657        -2.739230        -0.305441
 H         4.494500         0.414422         0.600459
 H         3.222979         2.159105         2.275059
 H         0.566786         1.795590         1.872572
 H         0.718510        -0.089285        -1.343079
 H        -0.368047        -1.049719        -0.309163
 H        -0.667847         0.703656        -0.243881
 H         1.124747        -1.092470         2.574047
