19
Iteration:  2123charge 0 multiplicity 1
 C         2.553847        -1.534550        -0.687557
 C         2.510878        -0.602004         0.466501
 O         3.244202        -0.933864         1.741910
 C         3.539641         0.244427         1.090406
 C         2.746507         1.571520         1.591360
 C         1.389705         1.408950         1.392039
 C         1.114318        -0.043569         0.854350
 C         0.172008        -0.200174        -0.295148
 O         0.615270        -0.841242         2.017351
 H         2.212355        -2.554082        -0.344095
 H         2.038226        -1.166614        -1.627587
 H         3.573837        -1.694705        -1.014955
 H         4.589907         0.395632         0.697179
 H         3.304795         2.359127         2.085650
 H         0.553830         2.096838         1.665115
 H         0.306939         0.602472        -1.049627
 H         0.161534        -1.235178        -0.669865
 H        -0.733996        -0.182884         0.275382
 H         1.474783        -1.218291         2.395672
