19
Iteration:  3488
 C         2.958202        -1.700989        -0.574722
 C         2.489392        -0.774656         0.536604
 O         3.497335        -0.670889         1.537558
 C         3.425848         0.467245         0.728934
 C         2.650445         1.628376         1.310313
 C         1.484102         1.092475         1.690401
 C         1.087905        -0.191048         0.989002
 C        -0.042982         0.035482        -0.093386
 O         0.352184        -0.873366         2.041716
 H         2.119869        -2.084520        -1.186381
 H         3.768966        -1.242680        -1.250325
 H         3.352845        -2.655279        -0.337692
 H         4.360152         0.609991         0.156448
 H         3.038616         2.580650         1.822705
 H         0.724319         1.343782         2.433159
 H         0.262144         0.352775        -1.045461
 H        -0.449453        -0.965215        -0.365923
 H        -0.897036         0.641476         0.353075
 H         1.049870        -1.414609         2.602643
