19
Iteration:  4668
 C         2.539180        -1.828006        -0.499880
 C         2.484218        -0.654296         0.510091
 O         3.542098        -0.552099         1.643728
 C         3.420011         0.524886         0.674303
 C         2.625098         1.696480         1.284279
 C         1.473246         1.074967         1.665272
 C         1.142951        -0.210133         1.031485
 C         0.170741         0.022223        -0.118312
 O         0.500373        -1.098140         1.967352
 H         3.378764        -2.263642        -0.060656
 H         1.655145        -2.339235        -0.195019
 H         2.570663        -1.648127        -1.530908
 H         4.229634         0.700135         0.002485
 H         3.105549         2.660886         1.382881
 H         0.635803         1.553327         2.167252
 H         0.636434         0.359755        -1.065649
 H        -0.488008        -0.843875        -0.173306
 H        -0.383423         0.978199         0.009182
 H         1.279946        -1.133730         2.616661
