19
Iteration:  2416
 C         2.837058        -1.697015        -0.588194
 C         2.542446        -0.552437         0.437518
 O         3.247399        -0.863609         1.648418
 C         3.466633         0.356219         1.008887
 C         2.776978         1.507483         1.552514
 C         1.450372         1.433558         1.517637
 C         1.090269        -0.121824         0.856957
 C        -0.024601        -0.016323        -0.204765
 O         0.496099        -0.956817         1.969749
 H         1.978026        -2.348673        -0.868818
 H         3.386342        -1.447286        -1.475338
 H         3.525113        -2.372367        -0.109667
 H         4.479825         0.463338         0.696284
 H         3.441627         2.335379         1.873626
 H         0.711815         2.136251         1.763939
 H         0.216086         0.617124        -1.072505
 H        -0.061512        -0.999966        -0.585657
 H        -0.975567         0.301666         0.133074
 H         1.283744        -1.339048         2.288485
