19
Iteration:   787
 C         2.759743        -1.701725        -0.541584
 C         2.518461        -0.655587         0.451204
 O         3.236551        -0.943080         1.680336
 C         3.540141         0.349018         0.957103
 C         2.812377         1.468681         1.570979
 C         1.490393         1.338332         1.474291
 C         1.039609         0.032954         0.835668
 C        -0.052904        -0.114601        -0.245907
 O         0.566682        -0.715744         1.958485
 H         1.876020        -2.331887        -0.834592
 H         3.161840        -1.366756        -1.529741
 H         3.472344        -2.479031        -0.104429
 H         4.517465         0.346244         0.412127
 H         3.238325         2.187057         2.296746
 H         0.780454         1.928551         2.127993
 H        -0.298934        -1.206566        -0.539036
 H        -0.968381         0.456118         0.141248
 H         0.324763         0.408043        -1.201366
 H         1.306822        -0.865588         2.485626
