19
Iteration:   278
 C         2.512461        -1.730074        -0.665649
 C         2.519252        -0.701588         0.483569
 O         3.208031        -0.855706         1.765073
 C         3.494179         0.332740         0.916564
 C         2.799669         1.525341         1.472597
 C         1.436102         1.298507         1.433395
 C         1.181020        -0.070074         0.977785
 C         0.226264         0.014325        -0.267077
 O         0.577088        -0.832039         2.060129
 H         1.978415        -2.668919        -0.355116
 H         1.753604        -1.244528        -1.358655
 H         3.468230        -1.913724        -1.099197
 H         4.492736         0.426649         0.498036
 H         3.264204         2.456888         1.884889
 H         0.582824         1.925745         1.834218
 H        -0.247537        -0.961055        -0.557819
 H        -0.553250         0.765065        -0.036448
 H         0.781288         0.248488        -1.235819
 H         1.449317        -0.928636         2.516179
