19
Iteration:  1510charge 0 multiplicity 1
 C         2.729993        -1.662906        -0.575132
 C         2.521151        -0.612929         0.501471
 O         3.177891        -0.927490         1.725528
 C         3.551324         0.376776         1.013856
 C         2.848795         1.534775         1.427855
 C         1.541683         1.320906         1.454241
 C         1.107770        -0.081075         0.921539
 C         0.030795         0.077204        -0.118336
 O         0.460599        -1.004556         1.816922
 H         1.968823        -2.449713        -0.371656
 H         2.706718        -1.282305        -1.578096
 H         3.747389        -2.122601        -0.191829
 H         4.501928         0.379897         0.546690
 H         3.382811         2.479962         1.689787
 H         0.851012         2.110567         1.882572
 H         0.484120         0.684721        -0.930478
 H        -0.239796        -0.907149        -0.541040
 H        -0.983028         0.545070         0.155888
 H         0.940236        -0.833671         2.647960
