19
Iteration:  1320
 C         2.447150        -1.606987        -0.640765
 C         2.533069        -0.600200         0.506210
 O         3.215262        -0.859450         1.850858
 C         3.538012         0.371870         1.047250
 C         2.860257         1.567754         1.563432
 C         1.447622         1.354303         1.413368
 C         1.132048        -0.102848         0.857752
 C         0.072862        -0.103589        -0.282682
 O         0.700639        -0.950235         1.855758
 H         1.784573        -2.393940        -0.276532
 H         2.058007        -1.094592        -1.541439
 H         3.363167        -2.059549        -0.879459
 H         4.603599         0.284308         0.631490
 H         3.390748         2.302166         2.200443
 H         0.592093         2.068646         1.756974
 H         0.218755         0.744024        -0.995754
 H         0.025952        -1.026010        -0.904284
 H        -0.878346         0.004226         0.235485
 H         1.378883        -1.303542         2.394628
