19
Iteration:  4795charge 0 multiplicity 1
 C         2.723737        -1.488312        -0.707486
 C         2.549882        -0.655392         0.509189
 O         3.320090        -0.995420         1.677782
 C         3.425753         0.436076         0.963969
 C         2.756636         1.699419         1.382698
 C         1.423996         1.419575         1.288641
 C         1.110994        -0.120094         0.948132
 C        -0.064842        -0.373115        -0.002646
 O         0.647693        -0.838624         2.105423
 H         3.731134        -1.879026        -0.921242
 H         2.121945        -2.441399        -0.403294
 H         2.208847        -0.979589        -1.597083
 H         4.434031         0.518172         0.636820
 H         3.350845         2.605333         1.689531
 H         0.684281         2.234211         1.450674
 H         0.385407        -0.233243        -0.963086
 H        -0.400023        -1.401241        -0.213220
 H        -0.992319         0.207353         0.039851
 H         1.439307        -1.169224         2.664844
