19
Iteration:   680charge 0 multiplicity 1
 C         2.711773        -1.919675        -0.412604
 C         2.556175        -0.615176         0.559068
 O         3.458331        -0.913063         1.538594
 C         3.440757         0.428009         0.756732
 C         2.702555         1.479935         1.574892
 C         1.393631         1.214778         1.691622
 C         1.041362        -0.042249         0.895732
 C         0.199106         0.141804        -0.373199
 O         0.371390        -0.727102         1.941953
 H         2.249733        -2.685909         0.251294
 H         2.307069        -1.962686        -1.409066
 H         3.851781        -2.073847        -0.422115
 H         4.470207         0.425179         0.309808
 H         3.337902         2.256257         1.914580
 H         0.574535         1.704751         2.240551
 H         0.501626        -0.614520        -1.127441
 H        -0.853322         0.010064        -0.168196
 H         0.311044         1.132907        -0.771371
 H         0.983971        -1.058929         2.678970
