19
Iteration:  2309
 C         2.885490        -1.901408        -0.387132
 C         2.473131        -0.701388         0.531335
 O         3.378641        -0.711655         1.652365
 C         3.499240         0.448775         0.800569
 C         2.784311         1.573590         1.449226
 C         1.572978         1.153085         1.648532
 C         1.030820        -0.092891         0.889991
 C         0.019715         0.277258        -0.277453
 O         0.281397        -1.030331         1.841822
 H         2.991504        -2.798807         0.215832
 H         2.106217        -1.959049        -1.124221
 H         3.856139        -1.593134        -0.867845
 H         4.526110         0.350293         0.471740
 H         3.384575         2.422098         1.860318
 H         0.947487         1.602969         2.379375
 H         0.171532         1.254061        -0.875068
 H        -0.219526        -0.506161        -0.990805
 H        -0.952450         0.441932         0.218844
 H         0.990988        -1.294008         2.435320
