19
Iteration:  2487charge 0 multiplicity 1
 C         2.672781        -1.540141        -0.630520
 C         2.532575        -0.587350         0.541907
 O         3.253125        -0.961093         1.673246
 C         3.518827         0.337500         1.060801
 C         2.762587         1.572703         1.463020
 C         1.445810         1.317602         1.448569
 C         1.117589        -0.054272         0.986586
 C         0.127603        -0.138075        -0.265850
 O         0.497929        -0.929283         1.958676
 H         1.732630        -1.747845        -1.139577
 H         3.455658        -1.084607        -1.285594
 H         3.083264        -2.470149        -0.237459
 H         4.517085         0.658498         0.738119
 H         3.295659         2.470338         1.729837
 H         0.655741         2.076032         1.493052
 H         0.436848         0.473308        -1.105600
 H        -0.060150        -1.192133        -0.595880
 H        -0.869138         0.338178        -0.092467
 H         1.157813        -1.044645         2.635167
