19
Iteration:  2856
 C         2.652343        -1.700358        -0.580736
 C         2.462995        -0.685584         0.640535
 O         3.333842        -0.761982         1.673943
 C         3.467052         0.555624         0.749456
 C         2.685671         1.709331         1.251559
 C         1.440267         1.274207         1.683178
 C         1.061747        -0.127042         1.079634
 C         0.215882         0.056562        -0.179827
 O         0.574995        -1.262639         1.889229
 H         1.648299        -2.101643        -0.924454
 H         3.190086        -1.121547        -1.275548
 H         3.209376        -2.517963        -0.251154
 H         4.495363         0.497107         0.415814
 H         3.037422         2.695346         1.550048
 H         0.624150         1.958845         2.093417
 H         0.796005         0.105540        -1.145685
 H        -0.496251        -0.821971        -0.250422
 H        -0.396484         0.964457        -0.221301
 H         1.078571        -1.132907         2.772037
