19
Iteration:  2023charge 0 multiplicity 1
 C         2.526643        -1.773949        -0.433229
 C         2.451826        -0.630948         0.593393
 O         3.526932        -0.685156         1.708995
 C         3.550425         0.383939         0.795103
 C         2.676551         1.559454         1.344705
 C         1.398126         1.194454         1.689085
 C         1.081113        -0.096419         1.008445
 C         0.297163         0.284863        -0.242329
 O         0.366893        -1.201652         1.779003
 H         1.815527        -2.626806        -0.131138
 H         2.378597        -1.528435        -1.526472
 H         3.531793        -2.191335        -0.405598
 H         4.539587         0.463300         0.361217
 H         2.914983         2.643161         1.414718
 H         0.738050         1.940316         2.087977
 H         0.927734         0.843517        -0.985612
 H        -0.188565        -0.675978        -0.594592
 H        -0.357089         1.036885         0.140521
 H         1.173168        -1.644285         2.267853
