19
Iteration:  2519charge 0 multiplicity 1
 C         2.601273        -1.683525        -0.600380
 C         2.508770        -0.625568         0.535334
 O         3.347373        -0.785393         1.719802
 C         3.457309         0.425662         0.920081
 C         2.764439         1.469561         1.585406
 C         1.443846         1.271758         1.569352
 C         1.133065        -0.020188         0.910750
 C         0.159031        -0.123018        -0.339403
 O         0.509903        -0.851572         1.906920
 H         1.747367        -1.872959        -1.275157
 H         3.310555        -1.391731        -1.417150
 H         2.973260        -2.683437        -0.406789
 H         4.497668         0.580700         0.511331
 H         3.152836         2.066315         2.381073
 H         0.527141         1.768134         1.920847
 H         0.726684        -0.158220        -1.227458
 H        -0.389268        -1.090851        -0.380224
 H        -0.697651         0.567811        -0.283318
 H         1.181945        -1.028099         2.677500
