19
Iteration:   879charge 0 multiplicity 1
 C         2.713216        -1.794796        -0.564251
 C         2.562919        -0.668477         0.451295
 O         3.184452        -0.791682         1.791536
 C         3.506726         0.383040         0.893002
 C         2.806632         1.565277         1.386642
 C         1.486047         1.275883         1.515164
 C         1.158301        -0.114395         0.896519
 C         0.124313         0.173684        -0.109434
 O         0.410959        -1.003136         1.858548
 H         2.203482        -2.700237        -0.186381
 H         2.308443        -1.544517        -1.570522
 H         3.755145        -2.111962        -0.633173
 H         4.534025         0.455239         0.591265
 H         3.318267         2.417444         1.854338
 H         0.915717         2.021879         2.018007
 H        -0.575359         0.900102         0.204055
 H         0.624807         0.588305        -0.958138
 H        -0.447352        -0.707181        -0.306935
 H         1.089372        -1.313280         2.454314
