19
Iteration:   709charge 0 multiplicity 1
 C         2.641952        -1.716114        -0.540654
 C         2.406466        -0.694837         0.608077
 O         3.372291        -0.777733         1.754381
 C         3.468407         0.314668         0.881360
 C         2.882488         1.520913         1.471556
 C         1.528379         1.283684         1.461917
 C         1.111725        -0.099212         0.937324
 C         0.184183         0.066810        -0.254314
 O         0.334863        -0.889350         1.892028
 H         2.351589        -2.769719        -0.294173
 H         2.316649        -1.404718        -1.603736
 H         3.717521        -1.707344        -0.721374
 H         4.379038         0.210571         0.322092
 H         3.476059         2.335618         1.824099
 H         0.748718         1.871448         1.826269
 H         0.527560        -0.544196        -1.155700
 H        -0.848632        -0.373875        -0.032397
 H         0.027291         1.155286        -0.578788
 H         0.860357        -1.075320         2.791012
