19
Iteration:  4657charge 0 multiplicity 1
 C         2.663703        -1.795102        -0.422653
 C         2.478560        -0.621214         0.482219
 O         3.490949        -0.627118         1.537949
 C         3.362964         0.524050         0.656501
 C         2.638213         1.647605         1.243395
 C         1.461170         1.184486         1.687315
 C         1.145820        -0.219765         1.099879
 C         0.175011         0.090812        -0.145111
 O         0.480128        -1.103780         2.017826
 H         3.445076        -2.452077        -0.147949
 H         1.828345        -2.468970        -0.473416
 H         2.885434        -1.571299        -1.439690
 H         4.251544         0.642443         0.104206
 H         2.933619         2.674818         1.335399
 H         0.709580         1.596670         2.361848
 H         0.799301         0.015410        -1.031842
 H        -0.440886        -0.813523        -0.181239
 H        -0.518668         0.895626         0.117543
 H         1.026363        -1.416594         2.738777
