19
Iteration:  2368
 C         2.505207        -1.647876        -0.599439
 C         2.581930        -0.582325         0.553742
 O         3.400363        -0.766451         1.779418
 C         3.551336         0.377293         0.949373
 C         2.713849         1.520577         1.476390
 C         1.433498         1.182885         1.585013
 C         1.095552        -0.139765         0.974292
 C         0.242979        -0.003942        -0.412685
 O         0.449266        -0.985121         1.924524
 H         2.034719        -2.609808        -0.253740
 H         1.865382        -1.276980        -1.467799
 H         3.417272        -1.920457        -1.188801
 H         4.600277         0.490233         0.564868
 H         2.983852         2.485864         1.857240
 H         0.559707         1.863154         1.811832
 H         0.873541         0.493960        -1.173225
 H        -0.306493        -0.940975        -0.800677
 H        -0.488360         0.856228        -0.174693
 H         0.937375        -0.770971         2.748780
