19
Iteration:  2022charge 0 multiplicity 1
 C         2.515685        -1.777715        -0.427509
 C         2.462712        -0.635116         0.586305
 O         3.525213        -0.683153         1.712571
 C         3.558087         0.384792         0.793240
 C         2.679446         1.559574         1.349504
 C         1.395482         1.201216         1.694984
 C         1.079366        -0.100050         1.003861
 C         0.297375         0.283943        -0.250074
 O         0.371107        -1.202018         1.779381
 H         1.793682        -2.610919        -0.154133
 H         2.341622        -1.533734        -1.501353
 H         3.549338        -2.198348        -0.433906
 H         4.532291         0.497550         0.352271
 H         2.898975         2.627341         1.425357
 H         0.715431         1.941703         2.092211
 H         0.880101         0.864977        -0.993733
 H        -0.143521        -0.678048        -0.612257
 H        -0.364281         1.040950         0.140971
 H         1.155418        -1.660520         2.308597
