19
Iteration:  4138
 C         2.738796        -1.670518        -0.564528
 C         2.511004        -0.617256         0.465805
 O         3.434592        -0.633862         1.677094
 C         3.522538         0.451090         0.759003
 C         2.621708         1.646306         1.190990
 C         1.351228         1.216207         1.509241
 C         1.130092        -0.220453         1.007018
 C        -0.092479         0.010949        -0.054323
 O         0.655085        -1.170337         2.124987
 H         1.903836        -1.644572        -1.414863
 H         3.688684        -1.398928        -1.171132
 H         2.784994        -2.674146        -0.069418
 H         4.444109         0.621951         0.101541
 H         2.917044         2.591814         1.607416
 H         0.529332         1.798768         1.943321
 H         0.309670         0.300966        -1.045684
 H        -0.552052        -1.013589        -0.235671
 H        -0.768865         0.755327         0.462692
 H         1.479051        -1.136537         2.731651
