19
Iteration:  2671charge 0 multiplicity 1
 C         2.723155        -1.686688        -0.623672
 C         2.505118        -0.610099         0.473820
 O         3.405126        -0.781330         1.741966
 C         3.419071         0.402071         0.869859
 C         2.708781         1.481449         1.565176
 C         1.414729         1.185806         1.571096
 C         1.112323        -0.081484         0.868041
 C         0.083166        -0.058714        -0.264959
 O         0.517096        -0.820547         1.952290
 H         3.586684        -1.503231        -1.390918
 H         3.009779        -2.645153        -0.117492
 H         1.902651        -2.013260        -1.253068
 H         4.378399         0.724645         0.360858
 H         3.168668         2.224808         2.229387
 H         0.527506         1.603676         1.953366
 H         0.450931         0.161957        -1.246427
 H        -0.404141        -1.064206        -0.100158
 H        -0.679061         0.731226        -0.114729
 H         1.266390        -1.038569         2.558971
