19
Iteration:  1997
 C         2.435094        -1.811421        -0.404806
 C         2.534594        -0.672493         0.616606
 O         3.452458        -0.736286         1.675691
 C         3.401323         0.531092         0.793642
 C         2.746608         1.628778         1.511507
 C         1.479790         1.139093         1.629252
 C         1.166565        -0.133549         0.901307
 C         0.256346         0.132565        -0.269135
 O         0.474649        -1.059221         1.700171
 H         1.834125        -2.485302         0.177414
 H         1.863333        -1.674549        -1.301846
 H         3.374122        -2.382064        -0.732251
 H         4.428482         0.548220         0.409077
 H         3.159398         2.470094         2.028683
 H         0.756568         1.643992         2.309636
 H         0.550519         1.103804        -0.673916
 H         0.341128        -0.674167        -0.938449
 H        -0.675191         0.508779         0.228753
 H         0.854578        -0.968795         2.625290
