19
Iteration:  3203
 C         2.643212        -1.551377        -0.562582
 C         2.572310        -0.676728         0.583537
 O         3.443809        -0.729514         1.569327
 C         3.439950         0.524914         0.706558
 C         2.654656         1.577638         1.353411
 C         1.422367         1.189124         1.629380
 C         1.102907        -0.181671         1.032005
 C         0.121069        -0.165852        -0.130901
 O         0.497959        -0.992282         2.021994
 H         3.438581        -1.196469        -1.331956
 H         2.925129        -2.525350        -0.251987
 H         1.727591        -1.584334        -1.107049
 H         4.331267         0.559396         0.091580
 H         3.157718         2.555221         1.470310
 H         0.706392         1.904233         2.061736
 H         0.501594         0.398463        -1.031668
 H        -0.014602        -1.240552        -0.331915
 H        -0.772436         0.201951         0.337973
 H         1.013924        -0.984600         2.794874
