19
Iteration:  1684
 C         2.567776        -1.660079        -0.516340
 C         2.487937        -0.721145         0.663591
 O         3.535921        -0.745085         1.716734
 C         3.465056         0.401143         0.782322
 C         2.762254         1.569790         1.385936
 C         1.494526         1.150673         1.675153
 C         1.065838        -0.138157         1.008282
 C         0.312253         0.128486        -0.305019
 O         0.214195        -0.965563         1.829048
 H         1.996274        -2.550856        -0.303239
 H         2.246475        -1.191525        -1.402804
 H         3.653597        -2.061464        -0.382867
 H         4.406233         0.543924         0.193406
 H         3.395307         2.365785         1.747746
 H         0.805947         1.739808         2.213863
 H         0.799365         0.757480        -1.082337
 H         0.377777        -0.839334        -0.777341
 H        -0.800536         0.302707        -0.198101
 H         0.803593        -1.330263         2.433161
