19
Iteration:   724charge 0 multiplicity 1
 C         2.652927        -1.604467        -0.541452
 C         2.597471        -0.694014         0.617546
 O         3.270970        -0.922891         1.864271
 C         3.576066         0.276624         0.899239
 C         2.799631         1.552751         1.297072
 C         1.534441         1.295010         1.505019
 C         1.090435        -0.068683         0.940912
 C         0.088633         0.038606        -0.237357
 O         0.387478        -0.908937         1.844020
 H         2.019442        -2.491238        -0.319183
 H         2.101966        -1.100926        -1.303486
 H         3.742013        -1.894674        -0.822512
 H         4.589820         0.431026         0.417248
 H         3.241345         2.565410         1.426741
 H         0.816745         2.098553         1.893995
 H         0.380192        -0.467621        -1.152585
 H        -0.848270        -0.346339         0.136467
 H        -0.067899         1.077157        -0.471713
 H         0.971597        -0.987455         2.594430
