19
Iteration:  4340
 C         2.567481        -1.731609        -0.574683
 C         2.511989        -0.627422         0.589662
 O         3.591931        -0.660745         1.488489
 C         3.323479         0.507996         0.658077
 C         2.668799         1.637892         1.447231
 C         1.312086         1.251377         1.524718
 C         1.106107        -0.165213         1.142191
 C         0.197932        -0.159869        -0.156226
 O         0.573875        -1.040834         2.111675
 H         1.659084        -1.548610        -1.175855
 H         3.595065        -1.665296        -1.075838
 H         2.516873        -2.758757        -0.006533
 H         4.099100         0.774514        -0.136491
 H         2.988918         2.692811         1.559646
 H         0.415022         1.875138         1.778938
 H         0.731574         0.519440        -0.871500
 H         0.054724        -1.239832        -0.383493
 H        -0.770429         0.348065         0.054972
 H         1.369640        -1.195926         2.584593
