19
Iteration:  1921
 C         2.769656        -1.524744        -0.764949
 C         2.591866        -0.653053         0.504512
 O         3.202717        -0.938964         1.901615
 C         3.525950         0.318536         1.019896
 C         2.779901         1.525116         1.394150
 C         1.476215         1.220991         1.394287
 C         1.078434        -0.141904         0.913053
 C         0.025586         0.013557        -0.186871
 O         0.477072        -0.875381         1.979379
 H         2.321604        -2.516874        -0.927379
 H         2.435336        -0.935257        -1.633295
 H         3.938065        -1.640155        -0.883863
 H         4.611695         0.294855         0.723418
 H         3.244938         2.511495         1.570908
 H         0.702084         1.923920         1.739758
 H         0.448278         0.415921        -1.118363
 H        -0.414379        -0.954835        -0.378615
 H        -0.753758         0.727194         0.303812
 H         1.170585        -0.775109         2.727110
