19
Iteration:  2465charge 0 multiplicity 1
 C         2.897847        -1.565026        -0.707774
 C         2.535589        -0.663118         0.547374
 O         3.250833        -0.876625         1.832957
 C         3.476440         0.236668         0.994176
 C         2.742050         1.509473         1.462370
 C         1.431935         1.318540         1.318050
 C         1.079976        -0.139056         0.893894
 C        -0.019036         0.036795        -0.166956
 O         0.521219        -0.889585         1.995822
 H         1.972185        -1.841165        -1.218304
 H         3.622412        -1.065629        -1.404409
 H         3.340301        -2.554690        -0.496689
 H         4.514812         0.399147         0.608846
 H         3.138934         2.472837         1.733596
 H         0.640974         1.921147         1.842954
 H         0.076098         0.907879        -0.829890
 H        -0.289955        -0.843328        -0.834701
 H        -0.995578         0.327438         0.335640
 H         1.444779        -1.147892         2.416223
