19
Iteration:   159charge 0 multiplicity 1
 C         2.559902        -1.609582        -0.593201
 C         2.427842        -0.608315         0.529073
 O         3.256092        -0.845953         1.709164
 C         3.526303         0.344723         0.996444
 C         2.811813         1.553192         1.482968
 C         1.484129         1.354875         1.440191
 C         1.134322        -0.058421         0.948606
 C         0.092388        -0.095374        -0.240591
 O         0.606190        -0.973520         1.937606
 H         1.927554        -2.522006        -0.342654
 H         2.102737        -1.279335        -1.598791
 H         3.593539        -1.908199        -0.681544
 H         4.540258         0.385690         0.543644
 H         3.377039         2.413752         1.717526
 H         0.861161         2.186522         1.641934
 H        -0.133351        -1.179662        -0.318778
 H        -0.819857         0.497966        -0.001214
 H         0.536590         0.136703        -1.259371
 H         1.335198        -1.059771         2.691973
