19
Iteration:  3773
 C         2.679383        -1.683091        -0.679345
 C         2.544079        -0.685567         0.545621
 O         3.490886        -0.710860         1.645159
 C         3.329629         0.539637         0.702461
 C         2.568200         1.642274         1.219561
 C         1.424565         1.157745         1.597024
 C         1.128070        -0.192606         1.110322
 C         0.098241        -0.056452        -0.055932
 O         0.578362        -1.006854         2.082680
 H         1.776361        -2.158854        -0.672632
 H         2.922269        -1.008567        -1.554340
 H         3.596308        -2.299463        -0.572481
 H         4.318867         0.455877         0.150911
 H         2.942470         2.639126         1.500163
 H         0.706356         1.761840         2.105266
 H         0.291771         0.630446        -0.910939
 H         0.211508        -1.035846        -0.448905
 H        -0.888026         0.093284         0.283769
 H         1.309935        -1.124890         2.700042
