19
Iteration:  4972charge 0 multiplicity 1
 C         2.614805        -1.862241        -0.339243
 C         2.553501        -0.672422         0.520862
 O         3.685808        -0.606936         1.526779
 C         3.393343         0.524390         0.652605
 C         2.635353         1.499847         1.428127
 C         1.351650         1.170449         1.614215
 C         1.079741        -0.113654         0.975924
 C         0.121623        -0.036330        -0.206176
 O         0.445218        -0.880067         1.983185
 H         3.394232        -1.831519        -1.091749
 H         2.466461        -2.762312         0.308715
 H         1.665164        -1.943760        -0.890669
 H         4.234541         0.839729         0.006084
 H         3.249943         1.986157         2.139670
 H         0.741888         1.668654         2.382369
 H         0.600707         0.471822        -1.058555
 H        -0.284592        -0.984975        -0.529419
 H        -0.646024         0.710154        -0.223550
 H         1.048824        -1.338136         2.534475
