19
Iteration:  1616charge 0 multiplicity 1
 C         2.767385        -1.648919        -0.565701
 C         2.529667        -0.607594         0.493533
 O         3.151494        -0.872962         1.709359
 C         3.550155         0.353495         0.968581
 C         2.848190         1.429075         1.656781
 C         1.535925         1.292169         1.398367
 C         1.052790        -0.016989         0.822472
 C        -0.095090        -0.036935        -0.221059
 O         0.608550        -0.807052         1.859893
 H         2.133718        -2.514231        -0.335042
 H         2.468349        -1.275003        -1.546445
 H         3.799762        -2.037169        -0.526326
 H         4.622171         0.318316         0.893213
 H         3.217738         2.188570         2.369457
 H         0.658337         1.855760         1.908779
 H         0.152133         0.147182        -1.241146
 H        -0.423378        -1.078300        -0.249396
 H        -0.932619         0.520608         0.150993
 H         1.432418        -1.275990         2.324411
