19
Iteration:  4512charge 0 multiplicity 1
 C         2.785947        -1.603760        -0.770662
 C         2.571031        -0.675575         0.469048
 O         3.476603        -0.764372         1.616201
 C         3.447649         0.444008         0.821121
 C         2.662710         1.574708         1.374551
 C         1.365302         1.303909         1.387284
 C         1.081001        -0.135306         0.993432
 C        -0.103940        -0.261267         0.047186
 O         0.578034        -0.888459         2.191285
 H         1.885624        -1.543735        -1.387442
 H         3.557963        -1.207110        -1.415663
 H         2.933238        -2.639493        -0.453653
 H         4.335954         0.619877         0.119388
 H         3.239300         2.461335         1.573117
 H         0.576272         1.885702         1.803501
 H         0.281890        -0.139290        -1.059823
 H        -0.460639        -1.327114         0.226273
 H        -0.718392         0.541307         0.565650
 H         1.341296        -0.832088         2.748385
