19
Iteration:  1328charge 0 multiplicity 1
 C         2.450302        -1.597139        -0.578524
 C         2.581759        -0.564261         0.487137
 O         3.178620        -0.852741         1.815810
 C         3.538603         0.325463         1.024924
 C         2.804778         1.548341         1.575633
 C         1.489023         1.407327         1.403744
 C         1.110936        -0.098730         0.838589
 C         0.054392        -0.098680        -0.298299
 O         0.720062        -0.988041         1.855913
 H         1.771775        -2.370849        -0.201786
 H         2.111670        -1.222706        -1.515732
 H         3.399269        -2.220592        -0.812457
 H         4.556599         0.412248         0.728681
 H         3.332637         2.204836         2.241977
 H         0.803141         1.905974         2.127770
 H         0.359921         0.781893        -0.885749
 H        -0.054447        -1.044074        -0.802982
 H        -1.063622         0.003850         0.065963
 H         1.608442        -0.931878         2.365131
