19
Iteration:  4005
 C         2.683340        -1.599534        -0.630775
 C         2.522029        -0.681593         0.588437
 O         3.410443        -0.710217         1.748467
 C         3.480040         0.452012         0.728885
 C         2.678924         1.668821         1.233682
 C         1.395293         1.264007         1.549699
 C         1.065358        -0.120245         1.045461
 C         0.012547        -0.203856        -0.056725
 O         0.647358        -1.048603         1.960531
 H         2.858287        -2.724772        -0.415069
 H         1.867911        -1.577032        -1.300077
 H         3.420129        -1.181275        -1.289362
 H         4.405489         0.632370         0.292293
 H         3.088538         2.636467         1.545763
 H         0.644162         1.618380         2.192375
 H         0.388550        -0.114126        -1.010987
 H        -0.623509        -1.044685        -0.243279
 H        -0.664722         0.642441         0.145138
 H         1.205794        -0.969570         2.737285
