19
Iteration:   756
 C         2.663160        -1.647902        -0.621508
 C         2.505319        -0.657913         0.511086
 O         3.131636        -0.925896         1.860732
 C         3.495220         0.238518         1.075943
 C         2.818422         1.613501         1.398684
 C         1.499345         1.345360         1.271869
 C         1.111290        -0.076069         0.884635
 C         0.054547         0.074640        -0.142624
 O         0.644860        -0.961561         1.930017
 H         1.726535        -2.277604        -0.622442
 H         2.945402        -1.173014        -1.557771
 H         3.597771        -2.330494        -0.416036
 H         4.538013         0.348867         0.640627
 H         3.270496         2.622499         1.575710
 H         0.723069         2.190345         1.320589
 H        -0.001484        -0.575315        -1.045779
 H        -0.938114        -0.065727         0.333278
 H         0.052025         1.137575        -0.445606
 H         1.450909        -1.234004         2.534023
