19
Iteration:  1066
 C         2.547714        -1.614486        -0.632295
 C         2.489300        -0.606207         0.482260
 O         3.294773        -0.878796         1.727419
 C         3.471721         0.266979         0.994139
 C         2.766186         1.506853         1.564703
 C         1.405613         1.417767         1.459864
 C         1.079095        -0.014212         0.935938
 C         0.148088        -0.091612        -0.239097
 O         0.644777        -0.928296         1.916900
 H         1.954651        -2.502383        -0.471770
 H         2.339423        -1.111549        -1.596991
 H         3.587755        -1.894577        -0.625541
 H         4.493725         0.438884         0.554664
 H         3.235315         2.274631         2.159346
 H         0.665837         2.149182         1.754164
 H         0.703664         0.063129        -1.115364
 H        -0.165937        -1.075196        -0.320143
 H        -0.615911         0.662355        -0.262077
 H         1.432815        -1.338498         2.331283
