19
Iteration:  3557charge 0 multiplicity 1
 C         2.511291        -1.673471        -0.496511
 C         2.562391        -0.581290         0.423566
 O         3.347611        -0.703142         1.633668
 C         3.478028         0.504842         0.812790
 C         2.649437         1.630627         1.415806
 C         1.389489         1.175845         1.602423
 C         1.058210        -0.123741         0.962564
 C         0.115849        -0.120747        -0.194950
 O         0.753214        -1.028595         2.004560
 H         1.931645        -1.253928        -1.359898
 H         3.346068        -2.162783        -0.942172
 H         1.793792        -2.419257        -0.020383
 H         4.537306         0.539867         0.522668
 H         3.172673         2.512712         1.719696
 H         0.722101         1.776323         2.242321
 H         0.610563         0.519258        -0.981049
 H         0.002049        -1.088074        -0.682235
 H        -0.884749         0.140003         0.050796
 H         1.544176        -1.462513         2.429035
