19
Iteration:  1812charge 0 multiplicity 1
 C         2.722652        -1.614715        -0.573386
 C         2.520302        -0.700628         0.618313
 O         3.307646        -0.944245         1.715658
 C         3.527773         0.306075         0.940259
 C         2.808442         1.538155         1.474205
 C         1.442462         1.373598         1.440635
 C         1.049673        -0.059669         0.908639
 C         0.045022        -0.013675        -0.212896
 O         0.472906        -0.880074         1.878087
 H         2.357315        -2.608524        -0.379101
 H         2.568273        -1.234509        -1.552121
 H         3.851778        -1.600795        -0.559336
 H         4.538728         0.271012         0.460822
 H         3.352002         2.451016         1.778415
 H         0.700263         1.994371         1.919925
 H         0.206022         0.909449        -0.747411
 H        -0.006179        -0.826084        -0.898078
 H        -0.972892         0.212932         0.186947
 H         1.074037        -1.201155         2.639712
