19
Iteration:   418
 C         2.519431        -1.783868        -0.460000
 C         2.513222        -0.634835         0.499288
 O         3.427870        -0.762099         1.640449
 C         3.537011         0.386150         0.836556
 C         2.764331         1.496217         1.584787
 C         1.447758         1.226156         1.562077
 C         1.102109        -0.016802         0.912410
 C         0.170474        -0.021625        -0.282254
 O         0.460107        -0.849799         1.886402
 H         1.558259        -2.263304        -0.539470
 H         2.841670        -1.460528        -1.459933
 H         3.186734        -2.491433        -0.108180
 H         4.343616         0.664524         0.206112
 H         3.224215         2.317591         2.081239
 H         0.684903         1.774172         2.093417
 H        -0.401177        -0.917327        -0.135341
 H        -0.510225         0.774646        -0.282815
 H         0.629256        -0.156232        -1.240352
 H         1.145608        -1.128159         2.616578
