19
Iteration:  4558
 C         2.653955        -1.630573        -0.547962
 C         2.467546        -0.567248         0.464200
 O         3.308619        -0.797588         1.630774
 C         3.418850         0.445046         0.757684
 C         2.707040         1.594800         1.383948
 C         1.434967         1.342484         1.400658
 C         1.054482        -0.095272         1.014384
 C        -0.057422        -0.223413        -0.053172
 O         0.825372        -0.986856         2.099060
 H         2.017024        -2.490263        -0.504227
 H         2.502854        -1.277339        -1.563735
 H         3.657871        -2.023729        -0.437099
 H         4.381427         0.588140         0.257786
 H         3.091609         2.541172         1.800855
 H         0.602143         1.986683         1.760117
 H         0.322542         0.422862        -0.918075
 H         0.119850        -1.253085        -0.397610
 H        -1.111836         0.034013         0.339443
 H         1.681856        -1.230801         2.449701
