19
Iteration:   127
 C         2.580788        -1.667563        -0.605908
 C         2.590558        -0.696522         0.635102
 O         3.558356        -0.786218         1.712800
 C         3.552803         0.378799         0.834358
 C         2.724343         1.549600         1.383700
 C         1.445879         1.200235         1.556229
 C         1.188247        -0.149633         0.974863
 C         0.155082        -0.025203        -0.225175
 O         0.217594        -0.818283         1.898886
 H         2.271628        -2.646247        -0.171471
 H         1.947700        -1.118928        -1.390272
 H         3.523042        -1.841192        -1.104564
 H         4.459862         0.484602         0.210961
 H         3.161522         2.241287         2.039014
 H         0.782749         1.700062         2.224181
 H        -0.099840        -1.089701        -0.424129
 H        -0.803682         0.368697         0.184480
 H         0.415252         0.538017        -1.189068
 H         0.637872        -0.905084         2.693478
