19
Iteration:  1998
 C         2.434266        -1.812936        -0.405615
 C         2.545596        -0.673638         0.618523
 O         3.453616        -0.732629         1.678128
 C         3.398764         0.531316         0.797320
 C         2.748260         1.629128         1.503373
 C         1.473521         1.138906         1.630853
 C         1.172043        -0.138107         0.914917
 C         0.248763         0.141662        -0.273170
 O         0.471341        -1.067564         1.701103
 H         1.822158        -2.478980         0.199016
 H         1.875915        -1.626575        -1.311013
 H         3.367856        -2.409175        -0.753966
 H         4.401816         0.549050         0.399499
 H         3.190627         2.465486         1.991237
 H         0.756167         1.659720         2.296249
 H         0.600550         1.105427        -0.662096
 H         0.324286        -0.680417        -0.945050
 H        -0.688592         0.534156         0.197174
 H         0.859748        -0.981300         2.574580
