19
Iteration:  3392
 C         2.664320        -1.705945        -0.563175
 C         2.492112        -0.540601         0.408533
 O         3.363378        -0.672298         1.663554
 C         3.460189         0.474025         0.781400
 C         2.740824         1.639238         1.410308
 C         1.452417         1.261397         1.609246
 C         1.082725        -0.135837         0.959299
 C        -0.094896        -0.089394        -0.144589
 O         0.716364        -1.142709         2.010307
 H         3.120381        -1.551894        -1.457783
 H         3.310356        -2.385051         0.051393
 H         1.753095        -2.279155        -0.772305
 H         4.374568         0.457719         0.190005
 H         3.149343         2.571703         1.904636
 H         0.616515         1.853840         1.976170
 H         0.161400         0.383384        -1.058159
 H        -0.603256        -1.036475        -0.329056
 H        -0.775255         0.587028         0.406498
 H         1.609972        -1.259921         2.272353
