19
Iteration:  2920
 C         2.722943        -1.731722        -0.464520
 C         2.537608        -0.607200         0.462445
 O         3.540211        -0.716261         1.528233
 C         3.440416         0.529064         0.756150
 C         2.715170         1.547387         1.575600
 C         1.393593         1.220278         1.582828
 C         1.073610        -0.180810         0.930326
 C        -0.011443        -0.097410        -0.176901
 O         0.481745        -0.955066         1.929233
 H         2.275833        -1.653879        -1.495860
 H         3.727078        -2.129754        -0.558325
 H         2.187339        -2.525778         0.021066
 H         4.367932         0.935342         0.373875
 H         3.224691         2.272449         2.207581
 H         0.615066         1.888717         2.074194
 H         0.283945         0.697881        -0.856660
 H        -0.037725        -1.025181        -0.754574
 H        -0.874883         0.143312         0.410266
 H         0.980846        -0.881800         2.755383
