19
Iteration:  4232
 C         2.679075        -1.583107        -0.610566
 C         2.554499        -0.648288         0.457392
 O         3.445803        -0.758894         1.695523
 C         3.417127         0.436507         0.842245
 C         2.593552         1.620454         1.268053
 C         1.324529         1.271132         1.421956
 C         1.089399        -0.179325         0.998851
 C        -0.052521        -0.209892         0.016429
 O         0.771798        -0.942595         2.063803
 H         2.555408        -1.075452        -1.518810
 H         3.646876        -1.849092        -0.898862
 H         2.056008        -2.448849        -0.676114
 H         4.307290         0.471505         0.188863
 H         3.034906         2.550058         1.539302
 H         0.565346         1.784775         2.001445
 H         0.116984         0.530545        -0.736341
 H         0.054232        -1.113176        -0.548516
 H        -0.965876        -0.080186         0.564420
 H         1.445879        -0.902426         2.706083
