19
Iteration:  1148charge 0 multiplicity 1
 C         2.787999        -1.767792        -0.491925
 C         2.474223        -0.664673         0.521858
 O         3.367999        -0.870423         1.645957
 C         3.494748         0.403057         0.851600
 C         2.776140         1.543181         1.413430
 C         1.462221         1.316614         1.568701
 C         1.081533        -0.133809         0.971390
 C         0.081788         0.189013        -0.174104
 O         0.398388        -0.955918         1.883377
 H         2.198051        -2.697158        -0.239155
 H         2.618076        -1.513056        -1.582029
 H         3.822401        -1.986365        -0.292466
 H         4.381656         0.457597         0.226543
 H         3.273762         2.419438         1.761338
 H         0.765576         1.810681         2.277889
 H         0.028496         1.261523        -0.529719
 H         0.186761        -0.494578        -1.123497
 H        -0.936566        -0.046864         0.298196
 H         1.051625        -1.484073         2.298399
