19
Iteration:  2532
 C         2.725993        -1.730685        -0.531800
 C         2.501347        -0.621947         0.460949
 O         3.373453        -0.743065         1.659691
 C         3.552894         0.402381         0.905789
 C         2.719745         1.457255         1.652167
 C         1.400660         1.170756         1.551975
 C         1.068324        -0.115826         0.829801
 C         0.095059         0.006044        -0.343898
 O         0.460192        -0.851948         1.983150
 H         1.663928        -1.883938        -0.922496
 H         3.455611        -1.378038        -1.280010
 H         3.007689        -2.602989        -0.001438
 H         4.551222         0.567304         0.458386
 H         3.247799         2.316942         2.038275
 H         0.726024         1.816421         2.028867
 H         0.567881         0.203767        -1.330947
 H        -0.449634        -0.973576        -0.282575
 H        -0.568253         0.885198        -0.256659
 H         1.247591        -1.111222         2.462549
