19
Iteration:  3278
 C         2.699059        -1.680300        -0.664610
 C         2.501660        -0.542162         0.321054
 O         3.308230        -0.730692         1.636794
 C         3.510723         0.470846         0.866098
 C         2.686340         1.600968         1.427099
 C         1.350177         1.278959         1.501230
 C         1.073368        -0.085262         0.956027
 C        -0.117828        -0.218169        -0.068238
 O         0.803784        -1.018038         2.101997
 H         3.555866        -2.373018        -0.408013
 H         1.814869        -2.241901        -0.672399
 H         2.944324        -1.326805        -1.635358
 H         4.528646         0.629901         0.523673
 H         3.242629         2.383680         1.976899
 H         0.603346         1.894406         2.046894
 H         0.385985        -0.010785        -1.081487
 H        -0.524624        -1.270445        -0.037578
 H        -0.854297         0.534558         0.247121
 H         1.630475        -1.000935         2.651396
