19
Iteration:   535charge 0 multiplicity 1
 C         2.599813        -1.655747        -0.647922
 C         2.560522        -0.623043         0.484109
 O         3.318422        -0.974449         1.633833
 C         3.519134         0.378687         1.013022
 C         2.841373         1.483245         1.680188
 C         1.565672         1.374764         1.397661
 C         1.089944        -0.030231         0.878512
 C         0.104799        -0.265761        -0.226462
 O         0.382372        -0.623327         1.949751
 H         1.946851        -2.560021        -0.522458
 H         2.439712        -1.103831        -1.656724
 H         3.626162        -2.025594        -0.626551
 H         4.538630         0.457245         0.687309
 H         3.318857         2.236458         2.338513
 H         0.726705         1.891854         1.881898
 H         0.200724        -1.255753        -0.714776
 H        -0.885071        -0.305800         0.332864
 H         0.006047         0.453621        -1.101012
 H         1.051451        -1.023806         2.590560
