19
Iteration:   385charge 0 multiplicity 1
 C         2.423483        -1.776080        -0.439088
 C         2.438572        -0.702824         0.603697
 O         3.455159        -0.846813         1.652962
 C         3.418433         0.386977         0.844107
 C         2.723145         1.669252         1.362454
 C         1.418005         1.251906         1.578755
 C         1.151218        -0.146718         1.043710
 C         0.435523         0.199422        -0.347349
 O         0.440627        -1.032118         1.984845
 H         1.550633        -2.388318        -0.321772
 H         2.364895        -1.313262        -1.443188
 H         3.263926        -2.371735        -0.477463
 H         4.223597         0.452026         0.118273
 H         3.106498         2.687662         1.346558
 H         0.581377         1.900226         1.903561
 H         0.390488        -0.694254        -0.906896
 H        -0.544742         0.598867        -0.336218
 H         1.060258         0.912933        -0.888623
 H         1.129615        -1.178648         2.554163
