19
Iteration:  4818charge 0 multiplicity 1
 C         2.555286        -1.494593        -0.710973
 C         2.510010        -0.591149         0.485778
 O         3.256967        -0.804104         1.717290
 C         3.596239         0.335563         0.928681
 C         2.699379         1.537979         1.430893
 C         1.337275         1.293870         1.354239
 C         1.143087        -0.048414         0.918287
 C         0.038216        -0.441305        -0.130492
 O         0.755844        -0.753084         2.120806
 H         3.399133        -2.190335        -0.609805
 H         1.640166        -2.224811        -0.657608
 H         2.661089        -0.727028        -1.573583
 H         4.589365         0.340215         0.449191
 H         3.187457         2.391693         2.045018
 H         0.565421         2.002367         1.661835
 H         0.313619        -0.387437        -1.184866
 H        -0.197258        -1.537496        -0.115401
 H        -0.912148         0.085054         0.136142
 H         1.557923        -0.798400         2.625665
