19
Iteration:  2275charge 0 multiplicity 1
 C         2.611836        -1.794809        -0.373344
 C         2.471409        -0.637728         0.523216
 O         3.429816        -0.774164         1.707935
 C         3.488310         0.417495         0.857040
 C         2.709151         1.525522         1.449692
 C         1.375908         1.216985         1.586640
 C         1.131028        -0.097018         0.935986
 C         0.202800         0.234258        -0.245332
 O         0.486613        -1.058606         1.750832
 H         2.148705        -2.723006         0.051049
 H         2.010693        -1.660290        -1.291364
 H         3.566761        -2.061469        -0.750759
 H         4.552523         0.528456         0.503185
 H         3.100347         2.539734         1.509652
 H         0.640854         1.947352         1.931972
 H         0.440449         1.194362        -0.816110
 H         0.224099        -0.720731        -0.740947
 H        -0.701716         0.265378         0.346934
 H         1.029869        -1.231711         2.602768
