19
Iteration:  3580
 C         2.652574        -1.755433        -0.631345
 C         2.453340        -0.575952         0.437135
 O         3.405206        -0.754253         1.625451
 C         3.438156         0.523362         0.769655
 C         2.684306         1.638232         1.506444
 C         1.390466         1.260410         1.513820
 C         1.118356        -0.100720         0.968172
 C         0.037470        -0.097278        -0.105992
 O         0.669044        -1.031456         2.058490
 H         2.973142        -1.467529        -1.703691
 H         3.426504        -2.296470        -0.133816
 H         1.730306        -2.390101        -0.643012
 H         4.426009         0.612953         0.228981
 H         3.257032         2.510272         1.874823
 H         0.601290         1.831879         2.000120
 H         0.292730         0.627254        -0.947198
 H        -0.123739        -1.058803        -0.610940
 H        -0.871134         0.065595         0.418784
 H         1.366482        -1.436635         2.576998
