19
Iteration:  3467charge 0 multiplicity 1
 C         2.846034        -1.715169        -0.576466
 C         2.474235        -0.647865         0.510062
 O         3.480579        -0.676778         1.599177
 C         3.314889         0.490947         0.613233
 C         2.704961         1.498514         1.413626
 C         1.415218         1.213555         1.623154
 C         1.119926        -0.187586         1.075012
 C         0.130711        -0.038160        -0.112194
 O         0.392484        -0.951540         2.041099
 H         2.126048        -1.937285        -1.290016
 H         3.676519        -1.284877        -1.191109
 H         3.167367        -2.649374        -0.171315
 H         4.102952         0.585814        -0.120856
 H         3.138672         2.446627         1.825671
 H         0.625896         1.776764         2.129674
 H         0.480731         0.647917        -0.830508
 H        -0.241738        -0.937410        -0.620821
 H        -0.752466         0.414412         0.415190
 H         1.191883        -1.245226         2.553221
