19
Iteration:  1114
 C         2.810509        -1.610289        -0.645686
 C         2.494126        -0.694732         0.582783
 O         3.513874        -0.833513         1.687040
 C         3.538142         0.299908         0.858333
 C         2.803916         1.405742         1.472381
 C         1.440638         1.229297         1.500535
 C         1.017875        -0.127724         0.984925
 C         0.063370         0.061586        -0.216896
 O         0.248792        -0.801706         1.976959
 H         2.367805        -2.609686        -0.539426
 H         2.531949        -1.190066        -1.605744
 H         3.932878        -1.783107        -0.676222
 H         4.348242         0.523663         0.177989
 H         3.333860         2.380076         1.723856
 H         0.784002         1.927210         2.065324
 H         0.023334         1.080606        -0.679352
 H         0.271238        -0.762695        -0.990755
 H        -0.929979        -0.215677         0.167783
 H         0.667315        -0.822291         2.798892
