19
Iteration:   211
 C         2.910670        -1.712053        -0.693336
 C         2.518596        -0.695584         0.372830
 O         3.289785        -0.886234         1.735828
 C         3.562129         0.258774         0.982598
 C         2.744848         1.474177         1.484611
 C         1.435409         1.241266         1.348955
 C         1.106324        -0.116272         0.844720
 C        -0.156378         0.016321        -0.092722
 O         0.502823        -0.644096         2.101281
 H         2.077793        -2.280570        -1.107413
 H         3.146621        -1.096648        -1.605650
 H         3.751361        -2.319007        -0.409693
 H         4.605584         0.359682         0.516099
 H         3.280096         2.240104         1.979532
 H         0.750535         1.844491         1.863149
 H        -0.313210        -0.903384        -0.660974
 H        -0.991823         0.097182         0.616595
 H        -0.118841         0.893841        -0.745885
 H         1.227069        -0.814835         2.689165
