19
Iteration:    40charge 0 multiplicity 1
 C         2.400122        -1.788721        -0.334757
 C         2.564472        -0.670347         0.560039
 O         3.471129        -0.723353         1.791051
 C         3.607078         0.460411         0.871081
 C         2.759343         1.628046         1.314214
 C         1.456450         1.361157         1.497213
 C         1.105651        -0.105293         0.963537
 C         0.105786         0.148715        -0.133004
 O         0.481481        -1.218331         1.642003
 H         1.932479        -2.605759         0.261661
 H         1.869298        -1.427841        -1.283150
 H         3.276835        -2.244948        -0.778738
 H         4.662038         0.509576         0.435980
 H         3.260195         2.520610         1.720402
 H         0.754779         1.978164         2.094149
 H        -0.336538        -0.769783        -0.571195
 H        -0.834369         0.579641         0.270988
 H         0.669352         0.645206        -0.970256
 H         1.083377        -1.394896         2.521969
