19
Iteration:  3933
 C         2.668520        -1.684699        -0.670070
 C         2.487308        -0.642281         0.443035
 O         3.416392        -0.661025         1.684802
 C         3.420198         0.470658         0.796207
 C         2.713536         1.570571         1.511991
 C         1.405198         1.311827         1.534828
 C         1.083525        -0.160936         0.926643
 C         0.015231        -0.292109        -0.072807
 O         0.650182        -0.874595         2.013995
 H         3.094252        -2.588333        -0.183297
 H         1.784682        -2.187858        -1.135206
 H         3.291602        -1.439680        -1.529017
 H         4.376368         0.485245         0.218579
 H         3.116083         2.506396         1.907064
 H         0.665680         1.859910         2.052723
 H         0.317283         0.155137        -1.073848
 H        -0.141540        -1.301265        -0.471538
 H        -0.926330         0.226159         0.314190
 H         1.397789        -0.878805         2.583339
