19
Iteration:  1195
 C         2.401870        -1.747010        -0.464469
 C         2.496692        -0.617039         0.519905
 O         3.367014        -0.814172         1.774819
 C         3.463174         0.432540         0.889514
 C         2.769078         1.587302         1.496947
 C         1.402302         1.344030         1.515525
 C         1.166350        -0.015418         0.906162
 C         0.224085         0.129340        -0.235169
 O         0.653525        -1.194238         1.760126
 H         1.677915        -2.450328         0.025602
 H         1.859525        -1.310749        -1.361376
 H         3.354603        -2.279176        -0.690591
 H         4.483020         0.513567         0.468503
 H         3.229571         2.454319         2.035232
 H         0.587417         1.814483         2.065377
 H         0.748586         0.481961        -1.217661
 H        -0.276542        -0.929997        -0.321513
 H        -0.721959         0.913916        -0.094024
 H         1.214973        -1.309529         2.484557
