19
Iteration:  3193
 C         2.529941        -1.645489        -0.583777
 C         2.512712        -0.657959         0.595817
 O         3.559793        -0.708369         1.663748
 C         3.370154         0.500755         0.674480
 C         2.664423         1.581756         1.402808
 C         1.365159         1.188115         1.574079
 C         1.141921        -0.135983         1.023333
 C         0.172790        -0.156824        -0.168775
 O         0.546584        -0.949965         1.997401
 H         3.312052        -1.153529        -1.299733
 H         2.881634        -2.657990        -0.475520
 H         1.587711        -1.787987        -1.063426
 H         4.154379         0.740309        -0.056612
 H         3.091954         2.470023         1.896796
 H         0.625449         1.618395         2.300688
 H         0.476325         0.607054        -0.905083
 H         0.231782        -1.188286        -0.451364
 H        -0.824574         0.026343         0.150582
 H         1.241288        -1.097101         2.610646
