19
Iteration:  4728charge 0 multiplicity 1
 C         2.703079        -1.760678        -0.501290
 C         2.518248        -0.611632         0.421512
 O         3.361316        -0.734239         1.577218
 C         3.443796         0.453677         0.775711
 C         2.719126         1.591710         1.379885
 C         1.417734         1.312315         1.538063
 C         1.075736        -0.069649         1.003877
 C         0.038484        -0.092028        -0.071799
 O         0.588727        -0.972563         2.046762
 H         3.732928        -1.773120        -1.008287
 H         2.770761        -2.738820         0.058445
 H         1.978494        -2.003063        -1.332592
 H         4.456892         0.596761         0.390029
 H         3.228149         2.515320         1.562030
 H         0.584136         1.804992         2.048824
 H         0.158750         0.638915        -0.860171
 H         0.118501        -1.004280        -0.725725
 H        -0.987853        -0.184798         0.273773
 H         1.322910        -1.284909         2.557061
