19
Iteration:  1871charge 0 multiplicity 1
 C         2.728038        -1.453184        -0.697703
 C         2.544290        -0.654337         0.490526
 O         3.215697        -1.067681         1.716656
 C         3.478505         0.288748         1.061169
 C         2.766529         1.524297         1.602227
 C         1.428486         1.370731         1.374152
 C         1.109374         0.013714         0.847987
 C         0.080527        -0.235001        -0.241847
 O         0.589751        -0.688554         2.032531
 H         1.843232        -2.054721        -0.909201
 H         2.846250        -1.007593        -1.668664
 H         3.402305        -2.237815        -0.502972
 H         4.409210         0.326248         0.534710
 H         3.167975         2.328211         2.177807
 H         0.567955         2.006580         1.651827
 H         0.540871        -0.114684        -1.230434
 H        -0.217528        -1.297958        -0.095932
 H        -0.829332         0.255690        -0.023604
 H         1.311807        -1.224732         2.346595
