19
Iteration:  3196
 C         2.557791        -1.600248        -0.573019
 C         2.548087        -0.668979         0.596027
 O         3.520941        -0.716418         1.636191
 C         3.384283         0.511982         0.681500
 C         2.668123         1.580408         1.388488
 C         1.370028         1.172488         1.587035
 C         1.128934        -0.148473         1.029003
 C         0.159241        -0.155067        -0.177767
 O         0.533697        -0.955164         1.996264
 H         3.325445        -1.174568        -1.207649
 H         2.904724        -2.701103        -0.475886
 H         1.573194        -1.778899        -1.072556
 H         4.206489         0.693290        -0.064001
 H         3.116057         2.482021         1.762156
 H         0.656534         1.731908         2.263990
 H         0.501561         0.551604        -0.879074
 H         0.229870        -1.223339        -0.305674
 H        -0.830554         0.060024         0.272310
 H         1.208291        -1.064821         2.710319
