19
Iteration:    91charge 0 multiplicity 1
 C         2.844662        -1.860426        -0.415070
 C         2.432324        -0.719746         0.518356
 O         3.469797        -0.806388         1.500989
 C         3.365121         0.433450         0.695458
 C         2.748823         1.519671         1.415100
 C         1.417554         1.286710         1.647754
 C         1.010952        -0.091698         1.095774
 C         0.293847         0.260435        -0.304608
 O         0.286572        -0.996321         2.032634
 H         2.396010        -2.798566        -0.058198
 H         2.578595        -1.922681        -1.468239
 H         3.966065        -1.900480        -0.217538
 H         4.155332         0.598386        -0.104592
 H         3.287193         2.359517         1.966785
 H         0.634877         1.904779         2.197211
 H         0.068256        -0.693063        -0.844675
 H        -0.694637         0.744209        -0.080594
 H         0.856249         0.911964        -0.975883
 H         0.841557        -1.170497         2.710690
