19
Iteration:  4900charge 0 multiplicity 1
 C         2.689355        -1.744521        -0.458868
 C         2.492626        -0.717286         0.595451
 O         3.405338        -0.554397         1.738641
 C         3.410683         0.416777         0.697268
 C         2.746431         1.639199         1.217188
 C         1.517473         1.175406         1.555966
 C         1.085649        -0.207159         0.943473
 C         0.041133         0.015442        -0.045919
 O         0.561976        -1.105572         1.924283
 H         3.759411        -1.930674        -0.764201
 H         2.020600        -2.599441        -0.463898
 H         2.242962        -1.197624        -1.297550
 H         4.323349         0.491671         0.143617
 H         3.304433         2.546486         1.498064
 H         0.713432         1.871791         1.921709
 H         0.232261         0.815395        -0.804480
 H        -0.409723        -0.893475        -0.533154
 H        -0.889885         0.516188         0.418297
 H         0.992552        -0.867086         2.720150
