19
Iteration:  4388
 C         2.737023        -1.816909        -0.512385
 C         2.532071        -0.644189         0.485727
 O         3.419724        -0.507661         1.602808
 C         3.420376         0.538634         0.612743
 C         2.689619         1.639863         1.266626
 C         1.483908         1.212715         1.626372
 C         1.160714        -0.257281         0.981649
 C        -0.099554        -0.063209         0.076228
 O         0.548713        -1.149022         1.977426
 H         2.796147        -1.374225        -1.542732
 H         3.738207        -2.200621        -0.181427
 H         1.926352        -2.592138        -0.448367
 H         4.296118         0.836105         0.116468
 H         3.089307         2.628612         1.436542
 H         0.701450         1.869529         1.970044
 H         0.267808         0.668098        -0.689073
 H        -0.416907        -1.075772        -0.259587
 H        -0.700193         0.672961         0.684387
 H         1.278616        -1.110014         2.678759
