19
Iteration:  3558charge 0 multiplicity 1
 C         2.512191        -1.672872        -0.490199
 C         2.563902        -0.583074         0.416000
 O         3.340521        -0.694058         1.626158
 C         3.480917         0.503391         0.825395
 C         2.650358         1.625192         1.413148
 C         1.394730         1.173664         1.602530
 C         1.054715        -0.124952         0.962648
 C         0.116046        -0.120825        -0.193390
 O         0.751560        -1.024386         2.012650
 H         1.976176        -1.256898        -1.450691
 H         3.339556        -2.177901        -0.912841
 H         1.781556        -2.429789        -0.054929
 H         4.552962         0.542573         0.502534
 H         3.165026         2.527948         1.740421
 H         0.723799         1.766511         2.235842
 H         0.603682         0.529550        -0.994387
 H        -0.011329        -1.083957        -0.693658
 H        -0.882451         0.117837         0.060167
 H         1.568151        -1.507747         2.412671
