19
Iteration:  4406
 C         2.769955        -1.800744        -0.451277
 C         2.504920        -0.617828         0.489172
 O         3.485307        -0.651229         1.602053
 C         3.404079         0.507788         0.687128
 C         2.657602         1.699750         1.250792
 C         1.378330         1.289018         1.494678
 C         1.076722        -0.132404         1.018779
 C        -0.106030         0.017531         0.086648
 O         0.695332        -1.177817         1.933181
 H         2.916390        -1.530360        -1.512682
 H         3.457122        -2.599364        -0.142368
 H         1.914412        -2.525442        -0.551488
 H         4.317060         0.589457        -0.006127
 H         3.052319         2.656017         1.583748
 H         0.703195         1.790405         2.178438
 H         0.076726         0.672875        -0.739568
 H        -0.404502        -1.034161        -0.110927
 H        -0.978564         0.242038         0.689440
 H         1.397298        -1.415126         2.626592
