19
Iteration:  4356
 C         2.632847        -1.691108        -0.474300
 C         2.474681        -0.674205         0.558120
 O         3.598141        -0.686259         1.515223
 C         3.359911         0.541515         0.655199
 C         2.581795         1.659729         1.247613
 C         1.379370         1.270974         1.668337
 C         1.117380        -0.204275         1.034527
 C         0.101965        -0.110105        -0.132630
 O         0.574276        -1.065885         2.084571
 H         2.129460        -1.491633        -1.413535
 H         3.684957        -1.816375        -0.723162
 H         2.416672        -2.694705        -0.228896
 H         4.160703         0.767999        -0.002561
 H         3.086489         2.556171         1.560492
 H         0.719331         1.808810         2.327219
 H         0.722933         0.411646        -0.889449
 H        -0.286856        -1.095858        -0.464239
 H        -0.822448         0.361619         0.228189
 H         1.219139        -1.149301         2.823265
