19
Iteration:    73charge 0 multiplicity 1
 C         2.710850        -1.939573        -0.365083
 C         2.481760        -0.677996         0.495984
 O         3.344731        -0.692363         1.633411
 C         3.389161         0.437791         0.676698
 C         2.698071         1.576956         1.356346
 C         1.467707         1.171637         1.735120
 C         1.087152        -0.161292         0.952259
 C         0.255830         0.262533        -0.208378
 O         0.437801        -0.982490         1.888685
 H         2.158045        -2.829195         0.002899
 H         2.236195        -1.863045        -1.403972
 H         3.768899        -2.056975        -0.383319
 H         4.396169         0.481718         0.208392
 H         3.102539         2.503712         1.740902
 H         0.798835         1.516106         2.515526
 H         0.031527        -0.584553        -0.874144
 H        -0.601925         0.932260        -0.050474
 H         0.938440         0.928915        -0.815693
 H         1.116587        -1.138090         2.484800
