19
Iteration:    31
 C         2.447665        -1.749562        -0.390837
 C         2.577197        -0.583682         0.628813
 O         3.485252        -0.797086         1.732693
 C         3.618513         0.363214         0.933592
 C         2.784804         1.656638         1.370397
 C         1.429775         1.442202         1.393271
 C         1.076824        -0.075582         1.044742
 C         0.038430         0.047357        -0.148427
 O         0.512366        -1.215162         1.641741
 H         1.798030        -2.453052         0.203548
 H         1.685909        -1.473481        -1.203008
 H         3.355926        -2.215315        -0.658840
 H         4.498467         0.552309         0.279684
 H         3.275408         2.576256         1.697202
 H         0.808814         2.172971         1.906928
 H        -0.211809        -0.922095        -0.534865
 H        -0.751106         0.737029         0.138875
 H         0.542919         0.721704        -0.893495
 H         0.926638        -1.580090         2.585366
