19
Iteration:  1740charge 0 multiplicity 1
 C         2.611423        -1.883416        -0.325805
 C         2.482774        -0.618911         0.507146
 O         3.516863        -0.759334         1.550680
 C         3.530083         0.430460         0.800990
 C         2.699492         1.481992         1.581568
 C         1.381172         1.261700         1.712693
 C         1.020515        -0.153971         0.955714
 C         0.263213         0.276122        -0.353394
 O         0.410167        -1.057634         1.775662
 H         2.098092        -2.570693         0.383906
 H         2.154741        -1.980394        -1.346397
 H         3.705113        -2.254993        -0.419839
 H         4.462098         0.704056         0.256279
 H         3.084885         2.497855         1.910225
 H         0.611954         1.853193         2.233006
 H         0.902249         0.626507        -1.220220
 H        -0.420425        -0.520300        -0.742525
 H        -0.368886         1.156401        -0.062237
 H         0.635588        -0.841586         2.728218
