19
Iteration:  3183
 C         2.532022        -1.728934        -0.606554
 C         2.454952        -0.665736         0.539816
 O         3.622899        -0.647527         1.655256
 C         3.376228         0.479436         0.729204
 C         2.632545         1.593255         1.466687
 C         1.380078         1.268908         1.578251
 C         1.102018        -0.149272         0.983662
 C         0.178233        -0.149813        -0.187758
 O         0.573016        -0.969892         2.036780
 H         3.107060        -1.379970        -1.578508
 H         2.939142        -2.625756        -0.117005
 H         1.559234        -1.852238        -1.059218
 H         4.245849         0.648161         0.048648
 H         3.189135         2.356280         2.023223
 H         0.547027         1.612635         2.257948
 H         0.449301         0.595323        -0.935883
 H         0.010892        -0.911909        -0.903052
 H        -0.806129         0.099175         0.099123
 H         1.319038        -1.297852         2.556059
