19
Iteration:  3259charge 0 multiplicity 1
 C         2.814856        -1.598425        -0.541340
 C         2.508440        -0.614754         0.476033
 O         3.364863        -0.793759         1.639494
 C         3.418984         0.479174         0.777045
 C         2.659000         1.591585         1.405832
 C         1.373278         1.131315         1.484937
 C         1.095455        -0.188557         0.845796
 C        -0.193838        -0.072299         0.007144
 O         0.803205        -0.912619         2.015312
 H         3.902470        -1.869721        -0.304949
 H         2.157276        -2.461813        -0.459543
 H         2.813289        -1.142433        -1.518234
 H         4.351877         0.483855         0.163138
 H         3.068192         2.481643         1.825051
 H         0.594884         1.566792         2.169939
 H        -0.126217        -0.013004        -1.082534
 H        -0.875550        -0.898575         0.130949
 H        -0.803625         0.797866         0.258983
 H         1.680465        -1.244272         2.369812
