19
Iteration:  4279charge 0 multiplicity 1
 C         2.858766        -1.641906        -0.572410
 C         2.429889        -0.665797         0.430940
 O         3.344453        -0.654273         1.620659
 C         3.468671         0.459665         0.767338
 C         2.721513         1.595216         1.350978
 C         1.362725         1.310968         1.445914
 C         1.039545        -0.125290         0.979104
 C        -0.112091        -0.194826         0.076319
 O         0.731770        -1.043668         2.020642
 H         2.232465        -1.957114        -1.414735
 H         3.680250        -1.430396        -1.198237
 H         2.950694        -2.581390        -0.122586
 H         4.405830         0.595075         0.155939
 H         3.221291         2.462777         1.864854
 H         0.581406         1.915633         1.943604
 H         0.051237         0.221007        -0.910434
 H        -0.527566        -1.195909        -0.163285
 H        -0.811429         0.525703         0.577515
 H         1.330455        -1.108053         2.763448
