19
Iteration:   906
 C         2.696171        -1.832604        -0.341774
 C         2.471110        -0.634859         0.488363
 O         3.320963        -0.832151         1.685306
 C         3.512705         0.381604         0.830688
 C         2.807916         1.518482         1.574991
 C         1.484474         1.257326         1.601018
 C         1.079672         0.007997         0.853524
 C        -0.076139         0.226303        -0.269327
 O         0.581574        -1.022503         1.766795
 H         2.158787        -2.725980        -0.015132
 H         2.431518        -1.751143        -1.384212
 H         3.777726        -2.091511        -0.226665
 H         4.550419         0.449199         0.415504
 H         3.246811         2.450937         1.892628
 H         0.854916         1.960467         2.167887
 H        -0.449525         1.288667        -0.367993
 H         0.397021        -0.084390        -1.241584
 H        -0.943357        -0.410474         0.035405
 H         1.381967        -1.369841         2.133627
