19
Iteration:   296
 C         2.614055        -1.858381        -0.490031
 C         2.453491        -0.681310         0.516341
 O         3.301945        -0.853491         1.698789
 C         3.465625         0.361669         0.905364
 C         2.823244         1.520957         1.526072
 C         1.468297         1.274748         1.473723
 C         1.078922        -0.121518         0.800854
 C         0.016669         0.205661        -0.256345
 O         0.646973        -0.860290         1.958335
 H         2.474964        -2.783058         0.023572
 H         1.985673        -1.829128        -1.355401
 H         3.652565        -1.809841        -0.856174
 H         4.516229         0.363464         0.472196
 H         3.219557         2.376154         2.032537
 H         0.715105         1.898815         1.925800
 H        -0.526152        -0.675396        -0.557473
 H        -0.614403         0.990811         0.108451
 H         0.565513         0.472781        -1.125185
 H         1.343606        -0.874405         2.602849
