19
Iteration:  4478
 C         2.644838        -1.552157        -0.599241
 C         2.501684        -0.606146         0.492268
 O         3.492638        -0.752800         1.522457
 C         3.419780         0.444990         0.765328
 C         2.697578         1.600841         1.378785
 C         1.418266         1.252070         1.496673
 C         1.053114        -0.125745         0.981657
 C         0.041342        -0.340626        -0.068903
 O         0.625600        -0.890831         2.199676
 H         2.445293        -1.125505        -1.595368
 H         3.638361        -2.023988        -0.605912
 H         2.035487        -2.477688        -0.532535
 H         4.159219         0.587609        -0.057144
 H         3.066466         2.618868         1.527100
 H         0.640624         1.807879         2.004059
 H         0.135962         0.281960        -1.059786
 H        -0.204685        -1.489305        -0.104656
 H        -1.004226         0.112993         0.251304
 H         1.444847        -0.935361         2.762679
