19
Iteration:  2220charge 0 multiplicity 1
 C         2.712474        -1.642200        -0.648693
 C         2.500292        -0.615907         0.497274
 O         3.331551        -0.779956         1.723622
 C         3.476336         0.354691         0.918634
 C         2.714764         1.525699         1.516772
 C         1.447884         1.184886         1.592053
 C         1.113097        -0.112833         0.876758
 C         0.113746        -0.047899        -0.197785
 O         0.518975        -0.867823         1.916568
 H         1.744758        -2.158583        -0.907132
 H         2.912308        -1.141390        -1.616885
 H         3.413888        -2.398043        -0.529536
 H         4.471371         0.468850         0.386825
 H         3.161674         2.407850         1.928647
 H         0.530801         1.649679         2.017613
 H         0.795047        -0.093197        -1.065932
 H        -0.377671        -1.023336        -0.287705
 H        -0.605110         0.740712        -0.122121
 H         0.961195        -0.709988         2.794418
