19
Iteration:  3843charge 0 multiplicity 1
 C         2.716030        -1.725730        -0.490261
 C         2.503912        -0.610967         0.396847
 O         3.362060        -0.682082         1.586920
 C         3.496590         0.496637         0.777214
 C         2.667590         1.651468         1.376845
 C         1.426840         1.159249         1.602277
 C         1.090485        -0.131585         0.887897
 C        -0.075742        -0.120878        -0.092228
 O         0.671502        -1.003403         2.016895
 H         2.360711        -2.571090         0.209021
 H         2.169980        -1.540492        -1.373797
 H         3.737998        -1.729159        -0.807964
 H         4.473899         0.725213         0.449342
 H         3.049768         2.551653         1.910228
 H         0.746107         1.679899         2.314651
 H         0.237302         0.029187        -1.111651
 H        -0.280312        -1.229711        -0.006234
 H        -0.878774         0.587662         0.280166
 H         1.499625        -1.017152         2.460802
