19
Iteration:  3736charge 0 multiplicity 1
 C         2.882682        -1.610056        -0.532760
 C         2.444194        -0.563335         0.451080
 O         3.452704        -0.700307         1.569366
 C         3.448006         0.480154         0.692914
 C         2.734726         1.562316         1.298106
 C         1.465525         1.199301         1.538873
 C         1.007268        -0.145318         1.059042
 C        -0.135238        -0.062315        -0.009727
 O         0.571371        -1.103431         2.065418
 H         2.504173        -2.681681        -0.160451
 H         2.456420        -1.536063        -1.589430
 H         3.958702        -1.821122        -0.574479
 H         4.253770         0.773675         0.085881
 H         3.198228         2.476242         1.636101
 H         0.769107         1.935539         1.988244
 H         0.093810         0.559839        -0.866483
 H        -0.312444        -1.136256        -0.307870
 H        -1.135213         0.298022         0.434495
 H         1.224656        -1.203778         2.722997
