19
Iteration:  2789charge 0 multiplicity 1
 C         2.753129        -1.728493        -0.536276
 C         2.402564        -0.601454         0.466142
 O         3.447984        -0.850137         1.587827
 C         3.483055         0.370478         0.879549
 C         2.709676         1.558310         1.592013
 C         1.384286         1.311348         1.561812
 C         1.056724         0.042834         0.911157
 C         0.057936        -0.123629        -0.210266
 O         0.545514        -0.905313         1.943692
 H         2.784374        -2.698642        -0.071354
 H         2.180681        -1.874014        -1.455306
 H         3.770265        -1.596896        -0.916271
 H         4.448745         0.624794         0.335544
 H         3.276361         2.408840         2.034010
 H         0.612767         1.955459         1.974104
 H        -0.124105         0.699018        -0.876499
 H         0.233053        -1.073054        -0.764105
 H        -0.967806        -0.294514         0.187061
 H         1.279761        -0.879466         2.575692
