19
Iteration:  4619charge 0 multiplicity 1
 C         2.735238        -1.775433        -0.493460
 C         2.466932        -0.718657         0.495322
 O         3.589596        -0.605279         1.566977
 C         3.372667         0.453235         0.700444
 C         2.670310         1.580164         1.356437
 C         1.439113         1.194685         1.554141
 C         1.156713        -0.167439         1.039753
 C         0.012333        -0.011214        -0.107337
 O         0.450008        -1.016946         2.056987
 H         3.378921        -2.493518         0.085227
 H         1.768247        -2.006350        -0.976011
 H         3.275865        -1.202883        -1.300012
 H         4.109296         0.697798        -0.139317
 H         3.219319         2.513248         1.498086
 H         0.822534         1.807780         2.185241
 H         0.316561         0.633358        -0.939982
 H        -0.426777        -0.991351        -0.396172
 H        -0.856148         0.617482         0.205554
 H         1.083671        -1.153140         2.748889
