19
Iteration:  2824
 C         2.672515        -1.654931        -0.596532
 C         2.526043        -0.629595         0.589904
 O         3.419681        -0.684857         1.730759
 C         3.539574         0.439656         0.832455
 C         2.668473         1.579308         1.343128
 C         1.416820         1.139583         1.495926
 C         1.099102        -0.170543         0.944939
 C         0.118003         0.067533        -0.132219
 O         0.467206        -1.059735         1.944691
 H         1.807867        -2.414070        -0.622496
 H         2.625415        -1.113404        -1.522682
 H         3.618308        -2.118095        -0.503220
 H         4.508052         0.377779         0.365223
 H         2.999195         2.531523         1.759191
 H         0.527503         1.626518         1.971098
 H         0.480208         0.581309        -1.052422
 H        -0.231550        -0.959368        -0.387987
 H        -0.626628         0.586448         0.452133
 H         1.176310        -1.303780         2.502095
