19
Iteration:  2337charge 0 multiplicity 1
 C         2.813461        -1.785240        -0.481902
 C         2.447803        -0.634462         0.556553
 O         3.409708        -0.845085         1.663488
 C         3.409454         0.374019         0.790988
 C         2.720977         1.537899         1.454936
 C         1.393056         1.284545         1.619284
 C         1.132558        -0.090021         1.004931
 C         0.239107         0.139839        -0.177655
 O         0.347657        -0.950891         1.786810
 H         2.870801        -2.724665         0.140438
 H         1.975618        -1.843809        -1.217785
 H         3.741085        -1.481240        -0.878225
 H         4.399100         0.350387         0.265783
 H         3.270183         2.325190         1.930802
 H         0.679117         2.065329         1.957083
 H         0.589946         0.684159        -1.030923
 H        -0.244116        -0.669696        -0.765806
 H        -0.658290         0.626896         0.210144
 H         0.936260        -1.384202         2.473240
