19
Iteration:  3009charge 0 multiplicity 1
 C         2.746775        -1.635489        -0.719351
 C         2.517333        -0.591917         0.417380
 O         3.390893        -0.874005         1.690792
 C         3.493617         0.449479         0.957344
 C         2.758678         1.651642         1.529471
 C         1.394919         1.370109         1.415214
 C         1.070780        -0.098019         0.967022
 C        -0.089946        -0.212468        -0.089969
 O         0.605079        -0.981629         2.002280
 H         2.515668        -1.235051        -1.770896
 H         3.778457        -1.852777        -0.673944
 H         2.301131        -2.555425        -0.432877
 H         4.457217         0.441249         0.455009
 H         3.125561         2.596591         1.965218
 H         0.577384         2.026524         1.731321
 H         0.165692         0.030202        -1.165617
 H        -0.466612        -1.250277        -0.200299
 H        -0.939269         0.418614         0.111891
 H         1.405946        -0.996474         2.667269
