19
Iteration:  3671
 C         2.507119        -1.586903        -0.590348
 C         2.471826        -0.567077         0.536951
 O         3.405894        -0.783040         1.569329
 C         3.418836         0.512902         0.848356
 C         2.690593         1.618803         1.372705
 C         1.384127         1.300658         1.540367
 C         1.070194        -0.124223         1.057804
 C         0.075953        -0.276519        -0.227158
 O         0.803139        -1.040930         2.073507
 H         3.177463        -2.440125        -0.202025
 H         1.456247        -1.931084        -0.663394
 H         3.024145        -1.164282        -1.425245
 H         4.318201         0.648537         0.327670
 H         3.170006         2.478551         1.761037
 H         0.550964         1.878504         1.962457
 H         0.592101         0.283392        -0.962277
 H        -0.261507        -1.263854        -0.609183
 H        -0.866112         0.299422         0.036442
 H         1.636799        -1.004810         2.525358
