19
Iteration:  1929
 C         2.835138        -1.542527        -0.681779
 C         2.548535        -0.742400         0.503550
 O         3.235676        -0.896567         1.810145
 C         3.493296         0.282210         0.973722
 C         2.729346         1.474076         1.418704
 C         1.441773         1.243867         1.443093
 C         1.084830        -0.140793         0.915343
 C         0.073124         0.034320        -0.124592
 O         0.469642        -0.820593         1.910489
 H         2.347188        -2.492967        -0.499360
 H         2.448371        -1.019710        -1.590056
 H         3.867779        -1.619658        -0.883438
 H         4.544102         0.495686         0.684918
 H         3.212922         2.441544         1.690740
 H         0.707205         1.968735         1.754086
 H         0.371865         0.665858        -0.973835
 H        -0.325688        -0.948646        -0.426826
 H        -0.640691         0.694201         0.374427
 H         1.261462        -0.892141         2.465322
