19
Iteration:  4875charge 0 multiplicity 1
 C         2.831667        -1.685120        -0.553839
 C         2.559886        -0.606382         0.481341
 O         3.460692        -0.826109         1.625527
 C         3.485241         0.435332         0.813933
 C         2.676621         1.566062         1.244315
 C         1.380342         1.294334         1.416193
 C         1.040204        -0.114365         1.063864
 C        -0.012989        -0.065886        -0.000231
 O         0.482521        -0.954546         2.069981
 H         3.802503        -2.137370        -0.184109
 H         1.898927        -2.431666        -0.676644
 H         2.971362        -1.442556        -1.654477
 H         4.477274         0.690069         0.361118
 H         3.157444         2.509493         1.337066
 H         0.723428         1.967188         1.936274
 H         0.078599         0.715719        -0.831313
 H        -0.300977        -1.057257        -0.397093
 H        -1.048080         0.286168         0.294391
 H         1.178111        -1.363637         2.600615
