19
Iteration:  2488charge 0 multiplicity 1
 C         2.670817        -1.538112        -0.622470
 C         2.532941        -0.581566         0.546661
 O         3.253753        -0.962775         1.668569
 C         3.511229         0.337980         1.056148
 C         2.767536         1.572041         1.471633
 C         1.444166         1.328972         1.452214
 C         1.121993        -0.060943         0.981735
 C         0.136072        -0.143006        -0.266928
 O         0.497758        -0.929684         1.957755
 H         1.704879        -1.755124        -1.146543
 H         3.447714        -1.105683        -1.311570
 H         3.062077        -2.476655        -0.260843
 H         4.511467         0.637572         0.738943
 H         3.279859         2.500712         1.709684
 H         0.657936         2.056259         1.527201
 H         0.454113         0.456888        -1.142597
 H        -0.073921        -1.204960        -0.591479
 H        -0.871848         0.334871        -0.087099
 H         1.142653        -1.022012         2.620209
