19
Iteration:  2661charge 0 multiplicity 1
 C         2.704672        -1.729942        -0.526306
 C         2.549373        -0.669185         0.530522
 O         3.405167        -0.816808         1.616648
 C         3.431761         0.521956         0.855677
 C         2.690359         1.503116         1.661020
 C         1.380886         1.206195         1.532959
 C         1.114566        -0.119449         0.825577
 C         0.056382        -0.060336        -0.261397
 O         0.536227        -0.826444         1.939112
 H         3.423509        -1.459560        -1.430547
 H         3.094394        -2.656575        -0.022898
 H         1.705008        -1.941925        -0.915380
 H         4.450656         0.581588         0.428518
 H         3.231450         2.213807         2.303852
 H         0.663602         1.743141         2.101727
 H         0.626370         0.215385        -1.164489
 H        -0.439523        -0.958254        -0.657887
 H        -0.643544         0.747406        -0.020984
 H         1.248448        -0.884836         2.565277
