19
Iteration:    62charge 0 multiplicity 1
 C         2.575372        -1.881634        -0.360843
 C         2.493970        -0.722729         0.533633
 O         3.322338        -0.624322         1.719453
 C         3.467510         0.444693         0.743004
 C         2.703434         1.597494         1.379405
 C         1.518938         1.086565         1.706655
 C         1.181776        -0.135246         0.962493
 C         0.200598         0.257971        -0.251459
 O         0.502620        -1.025353         1.783838
 H         2.104511        -2.683383         0.255028
 H         2.091393        -1.670283        -1.374664
 H         3.531027        -2.294474        -0.606322
 H         4.316324         0.500528         0.009561
 H         3.087496         2.609435         1.419360
 H         0.702226         1.619101         2.189210
 H        -0.277527        -0.612718        -0.735063
 H        -0.673523         0.699504         0.264069
 H         0.738119         0.894563        -1.006337
 H         1.043300        -1.297701         2.475158
