19
Iteration:  1879
 C         2.678648        -1.381173        -0.727050
 C         2.442567        -0.587183         0.546413
 O         3.199025        -1.079350         1.799822
 C         3.504220         0.265114         1.017361
 C         2.776447         1.495360         1.572414
 C         1.461088         1.359420         1.327628
 C         1.165816         0.003127         0.914073
 C         0.069541        -0.267613        -0.190980
 O         0.592120        -0.751908         1.962695
 H         1.812126        -1.999313        -0.818036
 H         2.961169        -0.862698        -1.627745
 H         3.570264        -2.091482        -0.409836
 H         4.448116         0.430894         0.445212
 H         3.250344         2.434578         1.922822
 H         0.619333         2.055661         1.484625
 H         0.585845        -0.144061        -1.149816
 H        -0.166677        -1.292934        -0.130208
 H        -0.761339         0.488912        -0.273155
 H         1.396543        -1.231767         2.346457
