19
Iteration:   902charge 0 multiplicity 1
 C         2.711165        -1.867257        -0.375801
 C         2.460516        -0.648279         0.501550
 O         3.293846        -0.791666         1.679676
 C         3.488778         0.357863         0.838969
 C         2.846595         1.555292         1.593813
 C         1.496989         1.260320         1.576145
 C         1.087194        -0.008362         0.871700
 C        -0.060919         0.214713        -0.251701
 O         0.576030        -1.012376         1.763979
 H         2.205889        -2.764173        -0.011428
 H         2.440751        -1.658772        -1.454484
 H         3.726568        -2.085485        -0.277351
 H         4.516051         0.383011         0.461616
 H         3.262811         2.547354         1.912061
 H         0.740581         1.890504         2.126795
 H        -0.422133         1.185574        -0.284156
 H         0.318447         0.070051        -1.221961
 H        -0.889395        -0.405132        -0.016973
 H         1.376791        -1.535915         2.104542
