19
Iteration:  1774charge 0 multiplicity 1
 C         2.549225        -1.709775        -0.513696
 C         2.513648        -0.692949         0.601669
 O         3.251092        -0.707181         1.804674
 C         3.570613         0.378497         0.861468
 C         2.760129         1.599743         1.358104
 C         1.487608         1.238823         1.576502
 C         1.143687        -0.178926         0.977218
 C         0.264376         0.181289        -0.197884
 O         0.430808        -1.091909         1.748491
 H         2.204050        -2.754018        -0.147254
 H         1.721569        -1.521659        -1.304368
 H         3.530154        -1.838975        -1.011490
 H         4.560772         0.355731         0.431118
 H         3.122724         2.634588         1.604787
 H         0.753973         1.810996         2.204412
 H         0.952665         0.712395        -0.929101
 H        -0.239809        -0.751561        -0.663094
 H        -0.559960         0.812856         0.142816
 H         1.128153        -1.344877         2.360431
