19
Iteration:  3280charge 0 multiplicity 1
 C         2.679150        -1.694997        -0.675543
 C         2.514617        -0.545929         0.328610
 O         3.300898        -0.719239         1.621570
 C         3.516552         0.466079         0.866499
 C         2.689099         1.607058         1.453658
 C         1.347363         1.305103         1.506309
 C         1.076691        -0.094308         0.968057
 C        -0.094663        -0.241326        -0.057453
 O         0.798941        -1.018752         2.092525
 H         3.540061        -2.377568        -0.406062
 H         1.780454        -2.249452        -0.739005
 H         2.928129        -1.259929        -1.609000
 H         4.565242         0.602467         0.510001
 H         3.245766         2.408595         1.900316
 H         0.567957         1.951160         1.992873
 H         0.386839         0.011969        -1.035136
 H        -0.526443        -1.260281        -0.114831
 H        -0.890925         0.492289         0.166859
 H         1.621812        -0.994608         2.723739
