19
Iteration:  3152charge 0 multiplicity 1
 C         2.718029        -1.779171        -0.400841
 C         2.535701        -0.615116         0.495842
 O         3.427971        -0.775620         1.483821
 C         3.448142         0.584474         0.722050
 C         2.654122         1.622339         1.477869
 C         1.344944         1.158145         1.572920
 C         1.072343        -0.087524         0.944362
 C         0.042075         0.030565        -0.093739
 O         0.623085        -1.061792         1.935062
 H         3.165636        -1.581341        -1.379210
 H         3.345924        -2.441048         0.253610
 H         1.756812        -2.324260        -0.470911
 H         4.475795         0.524101         0.270286
 H         3.067896         2.580820         1.778070
 H         0.511959         1.701042         2.097157
 H         0.419613         0.629987        -0.903277
 H        -0.285211        -0.923699        -0.504817
 H        -0.831560         0.555084         0.362178
 H         1.335089        -1.152895         2.660323
