19
Iteration:  2918charge 0 multiplicity 1
 C         2.727637        -1.736217        -0.464387
 C         2.543496        -0.625455         0.466681
 O         3.553113        -0.721085         1.528700
 C         3.432127         0.537650         0.754463
 C         2.705922         1.556198         1.587235
 C         1.391533         1.232859         1.580083
 C         1.079860        -0.168003         0.928021
 C        -0.021477        -0.090891        -0.189402
 O         0.480501        -0.957822         1.924861
 H         2.259825        -1.652333        -1.437986
 H         3.737986        -2.200674        -0.646801
 H         2.186332        -2.549517         0.096889
 H         4.397105         0.940974         0.367991
 H         3.291181         2.261127         2.210252
 H         0.580343         1.773552         2.149066
 H         0.256606         0.656601        -0.892926
 H        -0.111836        -1.015795        -0.757334
 H        -0.909905         0.173270         0.398986
 H         1.029951        -0.862001         2.789357
