19
Iteration:  2362charge 0 multiplicity 1
 C         2.549020        -1.710500        -0.623334
 C         2.534333        -0.644650         0.573493
 O         3.404388        -0.782712         1.752550
 C         3.562637         0.439306         0.964925
 C         2.744553         1.586112         1.519753
 C         1.420894         1.184500         1.540891
 C         1.101795        -0.178653         0.961658
 C         0.224482         0.076199        -0.358698
 O         0.421356        -0.995074         1.920679
 H         2.185169        -2.661109        -0.222297
 H         1.781597        -1.340570        -1.259999
 H         3.506458        -1.771058        -1.132107
 H         4.474880         0.455629         0.377071
 H         3.090621         2.629544         1.704613
 H         0.692008         1.839739         1.957067
 H         0.904384         0.354393        -1.178806
 H        -0.174698        -0.794273        -0.810279
 H        -0.627175         0.727376        -0.382615
 H         0.863912        -0.895111         2.738986
