19
Iteration:  1573charge 0 multiplicity 1
 C         2.657192        -1.525677        -0.720189
 C         2.552845        -0.674637         0.557155
 O         3.287355        -1.067832         1.645428
 C         3.547408         0.330710         1.079619
 C         2.754775         1.453454         1.588460
 C         1.447113         1.302209         1.393859
 C         1.098343        -0.023849         0.870454
 C         0.136559        -0.162934        -0.314201
 O         0.430234        -0.671968         2.098463
 H         2.311075        -2.519870        -0.737653
 H         2.450436        -1.003539        -1.608075
 H         3.713046        -1.756246        -0.915584
 H         4.466431         0.477036         0.555746
 H         3.178029         2.334148         2.117456
 H         0.747162         2.173513         1.629257
 H         0.623792         0.345416        -1.106122
 H         0.058148        -1.190780        -0.645860
 H        -0.801178         0.268741        -0.045918
 H         0.993502        -0.554832         2.898771
