19
Iteration:   342charge 0 multiplicity 1
 C         2.737911        -1.953690        -0.380117
 C         2.484165        -0.739589         0.540466
 O         3.350130        -0.717443         1.702481
 C         3.488842         0.390294         0.792167
 C         2.971941         1.663436         1.382444
 C         1.624335         1.205393         1.583295
 C         1.074625        -0.066385         0.958417
 C        -0.007488         0.228754        -0.123417
 O         0.296494        -0.982737         1.722125
 H         2.427297        -2.887605         0.074614
 H         2.245703        -1.862537        -1.385422
 H         3.761113        -2.013295        -0.545072
 H         4.362861         0.426942         0.119750
 H         3.411394         2.627637         1.725069
 H         0.771169         1.761293         2.108371
 H        -0.221900        -0.589169        -0.776299
 H        -0.828137         0.417505         0.529291
 H         0.177209         1.123566        -0.714508
 H         0.614157        -1.404483         2.522171
