19
Iteration:  3087
 C         2.637476        -1.545953        -0.602129
 C         2.494449        -0.639494         0.595408
 O         3.452502        -0.867624         1.710400
 C         3.407027         0.407017         0.886553
 C         2.655080         1.656971         1.248572
 C         1.385048         1.284195         1.454196
 C         1.152943        -0.122524         1.016019
 C         0.145312        -0.036903        -0.063992
 O         0.558553        -1.072117         1.950584
 H         2.006501        -1.344201        -1.441073
 H         3.700491        -1.691481        -0.875713
 H         2.301847        -2.537085        -0.256711
 H         4.374603         0.567705         0.355557
 H         3.083436         2.654718         1.402312
 H         0.525316         1.801201         1.882465
 H         0.388593         0.591656        -0.937281
 H        -0.009629        -1.054744        -0.486345
 H        -0.837452         0.307466         0.361809
 H         1.324643        -1.170778         2.506027
