19
Iteration:   354
 C         2.668267        -1.874968        -0.401748
 C         2.501047        -0.719743         0.591646
 O         3.380304        -0.697429         1.768782
 C         3.485821         0.352551         0.716787
 C         2.802917         1.561649         1.291262
 C         1.576101         1.246898         1.624985
 C         1.138927        -0.134942         0.949288
 C         0.124461         0.284155        -0.166920
 O         0.301449        -1.029913         1.780703
 H         2.119149        -2.763374        -0.065795
 H         2.156217        -1.521473        -1.327338
 H         3.671418        -2.127871        -0.631744
 H         4.408538         0.304202         0.178234
 H         3.381119         2.427038         1.574348
 H         0.916832         1.798050         2.321212
 H         0.064329        -0.501275        -0.915413
 H        -0.868561         0.349117         0.253550
 H         0.396121         1.244448        -0.636342
 H         0.833130        -1.027556         2.688066
