19
Iteration:   392
 C         2.390422        -1.771630        -0.494474
 C         2.522542        -0.768922         0.583586
 O         3.437337        -0.849926         1.625867
 C         3.389911         0.418648         0.843888
 C         2.700448         1.695761         1.446407
 C         1.457989         1.348147         1.553581
 C         1.098947        -0.125002         1.025193
 C         0.449410         0.107460        -0.345413
 O         0.439289        -1.020560         1.999711
 H         1.465251        -2.361827        -0.319058
 H         2.454596        -1.447079        -1.537426
 H         3.258943        -2.507815        -0.260893
 H         4.295477         0.697668         0.215434
 H         3.272216         2.648260         1.581582
 H         0.622412         1.946711         1.966768
 H         0.219538        -0.793580        -0.974931
 H        -0.474885         0.743283        -0.130501
 H         1.156743         0.627995        -1.017589
 H         1.144984        -1.350601         2.618536
