19
Iteration:  1052charge 0 multiplicity 1
 C         2.652580        -1.602453        -0.524551
 C         2.453595        -0.537095         0.502094
 O         3.219923        -0.936403         1.716849
 C         3.542948         0.406194         1.011703
 C         2.808931         1.498418         1.568532
 C         1.457833         1.345422         1.397897
 C         1.090281        -0.039400         0.857498
 C        -0.004766        -0.046006        -0.281721
 O         0.696553        -0.997450         1.936112
 H         1.799647        -2.335786        -0.341900
 H         2.432974        -1.245660        -1.607554
 H         3.584304        -2.110094        -0.498494
 H         4.551962         0.400988         0.602743
 H         3.283061         2.296447         2.157631
 H         0.724797         2.069911         1.832497
 H         0.467417         0.019698        -1.297204
 H        -0.821486        -0.808795        -0.098609
 H        -0.737495         0.867179        -0.211107
 H         1.596046        -1.382331         2.138238
