19
Iteration:  3249charge 0 multiplicity 1
 C         2.894833        -1.633497        -0.554657
 C         2.525333        -0.684344         0.516121
 O         3.381947        -0.766698         1.609174
 C         3.442538         0.476912         0.729885
 C         2.637224         1.567669         1.427397
 C         1.368163         1.209830         1.496031
 C         1.106869        -0.165972         0.917148
 C        -0.240613        -0.056056         0.015742
 O         0.714482        -0.958512         1.998842
 H         3.993014        -1.824270        -0.702537
 H         2.412587        -2.649984        -0.560585
 H         2.555743        -1.105248        -1.504367
 H         4.419665         0.670381         0.184672
 H         3.126137         2.464397         1.673843
 H         0.443833         1.711686         1.890954
 H         0.173344         0.052307        -0.942022
 H        -0.891798        -0.856679         0.255232
 H        -0.525794         0.893235         0.401481
 H         1.500318        -1.195733         2.499780
