19
Iteration:  2766
 C         2.732592        -1.635000        -0.584942
 C         2.517114        -0.574279         0.455779
 O         3.237003        -0.862892         1.635563
 C         3.472266         0.447695         0.883576
 C         2.728397         1.499632         1.630833
 C         1.407982         1.301645         1.475611
 C         1.103146        -0.112928         0.860789
 C         0.073703        -0.202555        -0.233758
 O         0.612696        -0.801166         2.018157
 H         3.073979        -2.464217        -0.076466
 H         1.816669        -2.004190        -1.080978
 H         3.456129        -1.571990        -1.423451
 H         4.490817         0.524348         0.382125
 H         3.348115         2.196965         2.213458
 H         0.744667         1.823323         2.123456
 H        -0.071363         0.752462        -0.713492
 H         0.166883        -0.987469        -0.986942
 H        -0.973696        -0.357244         0.179855
 H         1.486291        -0.837800         2.565754
