19
Iteration:   510
 C         2.586018        -1.504860        -0.723175
 C         2.578835        -0.681368         0.554614
 O         3.194134        -0.989797         1.826116
 C         3.516640         0.240172         1.028542
 C         2.815105         1.456040         1.493121
 C         1.449858         1.379261         1.339927
 C         1.078216        -0.036968         0.922904
 C         0.126902        -0.155421        -0.294986
 O         0.566993        -0.732040         2.051061
 H         2.264750        -2.557395        -0.614508
 H         2.063212        -0.970242        -1.499131
 H         3.697422        -1.550346        -1.038128
 H         4.560766         0.185043         0.614961
 H         3.245334         2.378094         1.810019
 H         0.728241         2.154651         1.571090
 H         0.255691        -1.074695        -0.910296
 H        -0.963548        -0.097118         0.005547
 H         0.335867         0.629300        -1.056435
 H         1.369950        -0.779978         2.742441
