19
Iteration:   615charge 0 multiplicity 1
 C         2.530366        -1.641697        -0.472878
 C         2.444843        -0.676715         0.663402
 O         3.293704        -0.800291         1.806557
 C         3.535447         0.296694         0.987117
 C         2.791125         1.669624         1.148976
 C         1.539286         1.266164         1.637240
 C         1.132473        -0.103538         1.001119
 C         0.176508         0.171462        -0.227994
 O         0.493077        -1.130230         1.731756
 H         1.968337        -2.516936        -0.153418
 H         2.284566        -1.408664        -1.475496
 H         3.594245        -1.942746        -0.554599
 H         4.451023         0.246632         0.336845
 H         3.249198         2.628112         1.109323
 H         0.683334         1.685176         2.072987
 H        -0.607342        -0.559627        -0.353450
 H        -0.300076         1.116708        -0.237209
 H         0.755101         0.305865        -1.093147
 H         1.090262        -1.322423         2.395130
