19
Iteration:   552
 C         2.772569        -1.666144        -0.554462
 C         2.530684        -0.601624         0.470934
 O         3.392715        -0.971808         1.633910
 C         3.618531         0.308887         0.911328
 C         2.811692         1.383539         1.630912
 C         1.406179         1.360772         1.530093
 C         1.040859         0.031416         0.834026
 C        -0.047971        -0.134461        -0.289869
 O         0.417735        -0.680682         1.984042
 H         1.865367        -2.223691        -0.400370
 H         2.682806        -1.376668        -1.548743
 H         3.637775        -2.354608        -0.337952
 H         4.579859         0.555470         0.368193
 H         3.259722         2.114718         2.232771
 H         0.648992         2.068226         1.900523
 H        -0.043023        -1.208180        -0.532227
 H        -1.019888         0.192731         0.055245
 H         0.304913         0.323338        -1.186158
 H         1.085011        -0.702377         2.662671
