19
Iteration:  2746charge 0 multiplicity 1
 C         2.716397        -1.653273        -0.724347
 C         2.575685        -0.622157         0.474858
 O         3.272414        -0.821001         1.776948
 C         3.492350         0.375812         1.021408
 C         2.727747         1.555112         1.511556
 C         1.429166         1.286788         1.403829
 C         1.114713        -0.129799         0.843361
 C        -0.050117        -0.078277        -0.243758
 O         0.626254        -0.883786         2.088852
 H         3.369894        -2.504524        -0.560861
 H         1.769185        -2.050900        -1.118860
 H         3.131981        -1.069063        -1.530625
 H         4.565521         0.440574         0.685374
 H         3.062592         2.505583         1.989616
 H         0.635510         1.988034         1.619667
 H         0.082782         0.776832        -0.886566
 H         0.042108        -1.058236        -0.717015
 H        -1.060823        -0.200845         0.200433
 H         1.511094        -1.225877         2.530617
