19
Iteration:  2398
 C         2.628537        -1.663893        -0.570620
 C         2.488418        -0.648119         0.553259
 O         3.299515        -0.884503         1.709026
 C         3.488494         0.424828         0.945675
 C         2.771415         1.599228         1.609421
 C         1.459727         1.307399         1.469987
 C         1.094952        -0.032226         0.948582
 C         0.126265        -0.084251        -0.290502
 O         0.560421        -0.943091         1.847883
 H         1.803122        -2.307529        -0.727318
 H         2.786939        -1.179125        -1.551543
 H         3.509560        -2.406589        -0.488566
 H         4.430000         0.423949         0.402383
 H         3.059392         2.538029         2.090501
 H         0.570278         1.874712         1.895444
 H         0.631408         0.466977        -1.086302
 H        -0.157700        -1.141798        -0.489955
 H        -0.769650         0.444648         0.104282
 H         1.243223        -1.173298         2.451053
