19
Iteration:  3783
 C         2.565488        -1.611131        -0.588012
 C         2.578009        -0.644939         0.506753
 O         3.540890        -0.713162         1.642942
 C         3.445960         0.485214         0.715166
 C         2.559784         1.647220         1.245250
 C         1.338529         1.184168         1.644110
 C         1.094178        -0.213772         1.021453
 C         0.118434        -0.133710        -0.092738
 O         0.613932        -0.995733         2.091658
 H         1.670618        -2.189784        -0.677781
 H         2.787768        -1.155418        -1.631394
 H         3.261873        -2.458105        -0.457763
 H         4.432922         0.700198         0.194105
 H         2.911291         2.694440         1.429117
 H         0.555946         1.740408         2.134534
 H         0.550709         0.652677        -0.750849
 H        -0.031710        -1.018685        -0.687685
 H        -0.877558         0.176630         0.152663
 H         1.423015        -1.223470         2.622371
