19
Iteration:  2881
 C         2.627217        -1.731055        -0.467550
 C         2.494887        -0.569621         0.448640
 O         3.492370        -0.649020         1.605110
 C         3.401724         0.508983         0.797416
 C         2.699754         1.560468         1.471883
 C         1.378281         1.182130         1.611521
 C         1.119094        -0.170731         0.984015
 C         0.127089         0.001254        -0.162386
 O         0.540996        -1.084901         1.895218
 H         1.618034        -1.978099        -0.863318
 H         3.456409        -1.628659        -1.174129
 H         2.787564        -2.572091         0.273829
 H         4.383376         0.650306         0.373374
 H         3.236647         2.443604         1.803540
 H         0.480279         1.662130         1.961298
 H         0.684297         0.198144        -1.132175
 H        -0.638904        -0.778923        -0.300883
 H        -0.465347         0.945103        -0.149504
 H         1.310846        -1.440173         2.494722
