19
Iteration:  1382charge 0 multiplicity 1
 C         2.816308        -1.722029        -0.591981
 C         2.556555        -0.741397         0.589009
 O         3.424413        -0.802346         1.667055
 C         3.530818         0.377062         0.830260
 C         2.762558         1.489767         1.437556
 C         1.413155         1.223186         1.541770
 C         1.057890        -0.116171         0.998754
 C         0.089729         0.174459        -0.238287
 O         0.260308        -0.905399         1.969921
 H         2.237916        -2.657925        -0.617803
 H         2.612116        -1.285251        -1.566457
 H         3.964191        -1.857109        -0.581326
 H         4.452557         0.502837         0.288702
 H         3.339611         2.285692         1.941704
 H         0.640545         1.798901         2.155790
 H         0.486276         0.566675        -1.199046
 H        -0.295984        -0.781950        -0.509092
 H        -0.627259         0.991209         0.124240
 H         1.061586        -1.326722         2.468676
