19
Iteration:  2785charge 0 multiplicity 1
 C         2.742061        -1.731188        -0.517038
 C         2.376259        -0.627004         0.428887
 O         3.425157        -0.851309         1.576871
 C         3.491346         0.364766         0.889516
 C         2.699817         1.542195         1.576064
 C         1.390017         1.298238         1.569898
 C         1.075405         0.076642         0.917890
 C         0.059396        -0.150712        -0.197672
 O         0.573273        -0.877329         1.937457
 H         2.903567        -2.672270         0.003832
 H         2.075747        -1.811714        -1.417434
 H         3.762764        -1.359804        -0.925882
 H         4.453967         0.666224         0.434554
 H         3.208671         2.304027         2.151825
 H         0.574192         1.900782         1.928325
 H        -0.118759         0.644232        -0.951133
 H         0.410493        -0.976921        -0.812383
 H        -0.961630        -0.305054         0.199762
 H         1.262544        -0.870822         2.643642
