19
Iteration:  1583
 C         2.747023        -1.583314        -0.705559
 C         2.475802        -0.652025         0.460917
 O         3.321394        -1.058047         1.619406
 C         3.503565         0.281886         1.082582
 C         2.773258         1.479627         1.673426
 C         1.473004         1.377130         1.402225
 C         1.093896        -0.010512         0.936759
 C         0.062177        -0.186960        -0.276180
 O         0.488404        -0.666717         1.972754
 H         2.104158        -2.420582        -0.441125
 H         2.351298        -1.198702        -1.645314
 H         3.765904        -1.845953        -0.731083
 H         4.547322         0.469121         0.902417
 H         3.241979         2.371783         2.163860
 H         0.651419         2.067835         1.821507
 H         0.440461         0.277230        -1.157287
 H        -0.079542        -1.267424        -0.400236
 H        -0.902419         0.213789        -0.139120
 H         0.936825        -0.410300         2.758686
