19
Iteration:  1833
 C         2.824044        -1.647075        -0.657561
 C         2.539273        -0.637527         0.444108
 O         3.280825        -0.928708         1.687745
 C         3.475623         0.287767         0.974835
 C         2.738581         1.439648         1.675470
 C         1.421625         1.247752         1.372724
 C         1.081044        -0.088766         0.822403
 C         0.026606        -0.021554        -0.225547
 O         0.536613        -0.719187         2.042611
 H         2.009520        -2.378653        -0.466676
 H         2.792107        -1.184034        -1.689207
 H         3.854437        -2.103647        -0.527622
 H         4.433566         0.367683         0.380076
 H         3.174798         2.222363         2.326113
 H         0.681086         1.972203         1.649945
 H         0.028743         0.743072        -0.998980
 H         0.117839        -0.989917        -0.714587
 H        -0.991999         0.103865         0.263434
 H         1.097351        -0.219796         2.714938
