19
Iteration:  3908charge 0 multiplicity 1
 C         2.668824        -1.510450        -0.577537
 C         2.572779        -0.621226         0.537540
 O         3.427499        -0.804428         1.628320
 C         3.499012         0.504199         0.789019
 C         2.720756         1.621315         1.313696
 C         1.385719         1.257142         1.440866
 C         1.097598        -0.155422         0.930768
 C         0.070064        -0.244526        -0.104918
 O         0.487516        -0.992178         2.175056
 H         2.979974        -2.613776        -0.309734
 H         1.703338        -1.785205        -0.940568
 H         3.275418        -1.196994        -1.432034
 H         4.508240         0.531850         0.534980
 H         3.143586         2.655459         1.442754
 H         0.553654         1.800143         1.905687
 H         0.173472         0.562525        -0.824364
 H         0.065049        -1.153769        -0.792976
 H        -0.947481        -0.042963         0.440766
 H         1.290115        -1.090331         2.671397
