19
Iteration:  3938
 C         2.703594        -1.700827        -0.641945
 C         2.473329        -0.644349         0.444141
 O         3.434180        -0.696279         1.677334
 C         3.380070         0.453400         0.773610
 C         2.692068         1.572367         1.546240
 C         1.394537         1.324971         1.552112
 C         1.075235        -0.110340         0.892997
 C        -0.024271        -0.290096        -0.101170
 O         0.682897        -0.883777         2.005933
 H         3.147551        -2.524345        -0.069083
 H         1.803891        -2.120291        -1.118358
 H         3.283217        -1.438939        -1.552494
 H         4.357836         0.540083         0.289633
 H         3.266998         2.490172         1.734002
 H         0.557710         1.867325         2.088986
 H         0.418171         0.146649        -0.996611
 H        -0.256232        -1.349216        -0.301655
 H        -0.770741         0.333087         0.332250
 H         1.544961        -0.784706         2.568610
