19
Iteration:   999
 C         2.878783        -1.631799        -0.587314
 C         2.511268        -0.727461         0.519967
 O         3.374675        -0.837484         1.714925
 C         3.437124         0.374243         0.806376
 C         2.792351         1.537601         1.486720
 C         1.491898         1.273127         1.574109
 C         1.044706        -0.175651         0.988562
 C         0.040959         0.143866        -0.221747
 O         0.345664        -0.965144         1.948109
 H         2.258618        -2.555262        -0.644344
 H         2.703419        -1.091768        -1.589095
 H         3.851617        -1.929229        -0.401598
 H         4.376411         0.386760         0.221362
 H         3.277579         2.491593         1.752306
 H         0.662489         1.956320         1.947856
 H         0.434714        -0.129334        -1.177735
 H        -0.799325        -0.555212        -0.248431
 H        -0.221926         1.223528        -0.341263
 H         1.119168        -1.354386         2.577589
