19
Iteration:   430
 C         2.665167        -1.718212        -0.442703
 C         2.488000        -0.603791         0.515615
 O         3.415691        -0.805247         1.671185
 C         3.500259         0.408760         0.850271
 C         2.832459         1.481065         1.570376
 C         1.532412         1.223813         1.601010
 C         1.126579        -0.083232         0.783194
 C        -0.076076        -0.056160        -0.292830
 O         0.463786        -0.834103         1.879187
 H         1.708789        -2.227313        -0.485172
 H         3.009256        -1.501794        -1.445913
 H         3.354565        -2.367969         0.002026
 H         4.453327         0.375595         0.406132
 H         3.340222         2.306850         2.041959
 H         0.757585         1.684749         2.174192
 H        -0.775460        -0.834172        -0.048959
 H        -0.540425         0.888081        -0.235695
 H         0.300175        -0.105665        -1.302206
 H         1.057383        -0.678799         2.561008
