19
Iteration:  4011charge 0 multiplicity 1
 C         2.676571        -1.576059        -0.541236
 C         2.516413        -0.602536         0.535679
 O         3.412841        -0.716146         1.709964
 C         3.440300         0.471843         0.744725
 C         2.707947         1.629454         1.223941
 C         1.407482         1.258553         1.531460
 C         1.117202        -0.180753         1.074909
 C        -0.011311        -0.216608        -0.110264
 O         0.601189        -1.062704         1.991322
 H         2.827165        -2.586085        -0.374150
 H         1.848966        -1.451485        -1.333078
 H         3.494582        -1.235099        -1.257391
 H         4.444774         0.620588         0.220535
 H         3.200527         2.567625         1.477987
 H         0.706341         1.706138         2.317649
 H         0.589731         0.154741        -1.069496
 H        -0.564394        -1.198860        -0.190638
 H        -0.675531         0.611522         0.152924
 H         1.209828        -1.003955         2.825590
