19
Iteration:  4350
 C         2.619001        -1.714294        -0.492935
 C         2.465939        -0.688056         0.581114
 O         3.617325        -0.698210         1.506008
 C         3.329490         0.582264         0.662273
 C         2.590306         1.653453         1.330490
 C         1.382976         1.272531         1.622994
 C         1.044701        -0.201170         1.065340
 C         0.191198        -0.147353        -0.115509
 O         0.589916        -1.048125         2.084862
 H         1.998520        -1.532123        -1.400449
 H         3.629881        -1.620550        -0.979520
 H         2.314985        -2.770063        -0.171846
 H         4.139404         0.693508        -0.099973
 H         3.080411         2.616735         1.527325
 H         0.669754         1.986234         2.094031
 H         0.530834         0.380702        -1.024609
 H        -0.184797        -1.034147        -0.638100
 H        -0.701090         0.412980         0.194496
 H         1.289719        -1.148261         2.702961
