19
Iteration:   797charge 0 multiplicity 1
 C         2.748788        -1.741759        -0.583887
 C         2.553308        -0.571479         0.461139
 O         3.299570        -0.973924         1.650198
 C         3.540446         0.324252         0.954141
 C         2.816598         1.528094         1.566766
 C         1.461483         1.264693         1.581775
 C         1.116877        -0.036629         0.821169
 C        -0.057404        -0.129398        -0.281439
 O         0.462352        -0.618783         1.983897
 H         1.742974        -2.210239        -0.722084
 H         3.141256        -1.290370        -1.544365
 H         3.552797        -2.392648        -0.156977
 H         4.566784         0.415394         0.489403
 H         3.418681         2.291215         2.109852
 H         0.611969         1.714810         2.179796
 H        -0.412107        -1.253663        -0.173549
 H        -0.989588         0.547914        -0.185873
 H         0.387795         0.050319        -1.342054
 H         1.184630        -0.901153         2.462001
