19
Iteration:  2064charge 0 multiplicity 1
 C         2.819833        -1.782524        -0.595948
 C         2.560448        -0.722006         0.510788
 O         3.373931        -0.724280         1.727686
 C         3.447415         0.453235         0.761668
 C         2.769188         1.537957         1.418598
 C         1.480838         1.139404         1.691209
 C         1.017620        -0.104503         0.984113
 C         0.118798         0.164305        -0.181368
 O         0.332159        -0.980875         1.862660
 H         2.175641        -2.641959        -0.545198
 H         2.806265        -1.452033        -1.612391
 H         3.857439        -2.037760        -0.277732
 H         4.423212         0.530975         0.334999
 H         3.273421         2.438829         1.755320
 H         0.714922         1.590984         2.315124
 H         0.575575         0.164763        -1.170855
 H        -0.571333        -0.655306        -0.298637
 H        -0.402343         1.124946        -0.182237
 H         0.832983        -0.879989         2.665274
