19
Iteration:  3312
 C         2.523465        -1.490202        -0.633557
 C         2.536615        -0.568259         0.514449
 O         3.515894        -0.840883         1.612761
 C         3.413786         0.447235         0.819114
 C         2.668034         1.641013         1.367333
 C         1.369957         1.296478         1.450824
 C         1.140576        -0.096038         1.002752
 C         0.126790        -0.329867        -0.091395
 O         0.601514        -0.969593         2.113033
 H         3.359545        -2.219898        -0.478872
 H         1.630313        -2.000731        -0.794535
 H         2.684103        -0.894024        -1.468873
 H         4.299566         0.594157         0.177389
 H         3.247953         2.355630         1.882962
 H         0.497675         1.778671         1.945896
 H         0.154717         0.320318        -1.005663
 H         0.044728        -1.360230        -0.445978
 H        -0.889039        -0.140058         0.225801
 H         1.309714        -1.134505         2.696636
