19
Iteration:   616
 C         2.524133        -1.642567        -0.461510
 C         2.441389        -0.678295         0.667249
 O         3.300976        -0.797223         1.804899
 C         3.533980         0.298996         0.982701
 C         2.787744         1.676296         1.157945
 C         1.542976         1.262766         1.632470
 C         1.128654        -0.097401         1.003776
 C         0.179464         0.166880        -0.234012
 O         0.491301        -1.135125         1.716512
 H         1.976490        -2.508218        -0.157112
 H         2.258131        -1.402536        -1.424148
 H         3.594293        -1.944151        -0.568183
 H         4.441818         0.195819         0.300612
 H         3.297223         2.608700         1.124047
 H         0.677308         1.708120         2.084216
 H        -0.591169        -0.563870        -0.344018
 H        -0.299810         1.106317        -0.184947
 H         0.745096         0.308867        -1.089939
 H         1.121534        -1.303739         2.436070
