19
Iteration:    65charge 0 multiplicity 1
 C         2.610938        -1.892556        -0.363392
 C         2.490609        -0.722931         0.517656
 O         3.319528        -0.635738         1.697141
 C         3.452000         0.445977         0.721177
 C         2.708127         1.588157         1.372979
 C         1.503086         1.107816         1.727049
 C         1.156391        -0.159078         0.965198
 C         0.214529         0.265377        -0.241792
 O         0.491708        -0.998052         1.803821
 H         2.112469        -2.721343         0.188303
 H         2.145978        -1.749213        -1.346156
 H         3.625462        -2.242041        -0.547901
 H         4.275354         0.457450         0.058779
 H         3.036646         2.612144         1.504828
 H         0.713167         1.555792         2.293656
 H        -0.194740        -0.574408        -0.791255
 H        -0.662260         0.748849         0.160700
 H         0.788779         0.864592        -0.943158
 H         1.110830        -1.268391         2.516136
