19
Iteration:   983
 C         2.720149        -1.526302        -0.487643
 C         2.408174        -0.638904         0.654094
 O         3.420518        -0.880539         1.630072
 C         3.496715         0.373571         0.841366
 C         2.745245         1.518846         1.369251
 C         1.471772         1.136481         1.627509
 C         1.062722        -0.101174         0.975377
 C         0.192078         0.051489        -0.332969
 O         0.351989        -0.939106         1.962988
 H         2.195628        -2.490658        -0.464900
 H         2.551960        -1.096925        -1.444521
 H         3.892140        -1.692655        -0.542351
 H         4.324400         0.534528         0.156326
 H         3.283642         2.419671         1.609418
 H         0.825497         1.760594         2.192760
 H         0.914639        -0.018935        -1.242980
 H        -0.791397        -0.474775        -0.151614
 H        -0.228863         1.069176        -0.251641
 H         1.061446        -1.536175         2.389862
