19
Iteration:  2725charge 0 multiplicity 1
 C         2.762414        -1.473303        -0.660399
 C         2.528994        -0.645435         0.583503
 O         3.275955        -0.973857         1.791952
 C         3.490550         0.333120         0.985941
 C         2.708880         1.552710         1.349536
 C         1.379326         1.346249         1.338448
 C         1.104214        -0.079045         0.914173
 C         0.044502        -0.084329        -0.109109
 O         0.609802        -0.963143         1.943820
 H         3.707871        -2.016436        -0.473910
 H         1.972469        -2.249518        -0.713590
 H         2.747857        -0.840417        -1.521980
 H         4.547776         0.449365         0.644828
 H         3.043077         2.597712         1.496469
 H         0.497493         1.870137         1.642572
 H         0.457456         0.636965        -0.794393
 H        -0.325179        -1.057650        -0.463632
 H        -0.800673         0.324973         0.462996
 H         1.312448        -0.998570         2.623818
