19
Iteration:  4025charge 0 multiplicity 1
 C         2.689778        -1.579091        -0.558345
 C         2.491052        -0.601666         0.533884
 O         3.427983        -0.678316         1.585185
 C         3.472982         0.482938         0.756168
 C         2.700947         1.628540         1.316010
 C         1.437545         1.224301         1.541017
 C         1.076328        -0.183926         0.985676
 C         0.085902        -0.145226        -0.109289
 O         0.529462        -1.093713         2.112440
 H         2.529152        -2.455683         0.097055
 H         1.896507        -1.617658        -1.266707
 H         3.698830        -1.558686        -0.992387
 H         4.289769         0.571671         0.100121
 H         3.070333         2.631067         1.551546
 H         0.713375         1.938107         1.866174
 H         0.363377         0.186934        -1.092893
 H        -0.130671        -1.176935        -0.390317
 H        -0.873679         0.245703         0.165753
 H         1.232402        -1.187858         2.719314
