19
Iteration:  2598charge 0 multiplicity 1
 C         2.616802        -1.656060        -0.453171
 C         2.557186        -0.725331         0.582371
 O         3.306696        -0.677554         1.813892
 C         3.526694         0.450767         0.820160
 C         2.791531         1.619623         1.235855
 C         1.546997         1.193452         1.594888
 C         1.071069        -0.159160         0.920798
 C         0.165662         0.137142        -0.219252
 O         0.385844        -1.154366         1.830094
 H         2.005914        -1.255882        -1.354487
 H         3.682131        -1.841371        -0.631937
 H         2.151988        -2.604993        -0.220398
 H         4.537522         0.464436         0.474520
 H         3.103930         2.497388         1.823136
 H         0.826406         1.615296         2.267175
 H         0.365957         1.167343        -0.657051
 H         0.236229        -0.762284        -0.854664
 H        -0.837241         0.309701         0.185264
 H         1.091577        -1.474160         2.380587
