19
Iteration:  4548
 C         2.723383        -1.617131        -0.612119
 C         2.464242        -0.540035         0.466241
 O         3.279541        -0.806524         1.650517
 C         3.477648         0.484650         0.787329
 C         2.729181         1.565798         1.328290
 C         1.343805         1.312303         1.401403
 C         1.083663        -0.133369         0.927621
 C        -0.044295        -0.231311        -0.004124
 O         0.803742        -0.966526         2.160977
 H         1.803795        -2.190411        -0.584284
 H         2.893545        -1.185701        -1.602819
 H         3.522938        -2.311664        -0.431989
 H         4.413875         0.605443         0.258387
 H         3.384810         2.382527         1.715908
 H         0.553493         1.833577         2.014798
 H         0.054703         0.348585        -0.922619
 H        -0.344938        -1.251826        -0.239445
 H        -1.047933         0.234090         0.233975
 H         1.665671        -1.050895         2.539729
