19
Iteration:  1563
 C         2.672173        -1.452094        -0.746084
 C         2.531881        -0.679677         0.563441
 O         3.290852        -1.031920         1.745384
 C         3.545227         0.277542         0.995557
 C         2.774009         1.454805         1.545353
 C         1.431118         1.308607         1.362346
 C         1.090663        -0.163390         0.894371
 C         0.240679        -0.112227        -0.325845
 O         0.379195        -0.678540         2.148897
 H         2.061653        -2.320616        -0.756268
 H         2.194725        -0.847501        -1.439139
 H         3.786852        -1.536502        -0.866470
 H         4.464141         0.292103         0.454428
 H         3.312723         2.313263         1.993400
 H         0.513745         1.962027         1.550496
 H         0.547557         0.540368        -1.110571
 H         0.015171        -1.099259        -0.706140
 H        -0.754057         0.299413        -0.076738
 H         1.262088        -0.712450         2.690086
