19
Iteration:   433
 C         2.703832        -1.719334        -0.451332
 C         2.491671        -0.583628         0.520121
 O         3.401949        -0.825545         1.684346
 C         3.504085         0.413426         0.847073
 C         2.827768         1.487881         1.562120
 C         1.553548         1.232307         1.592306
 C         1.109311        -0.094776         0.787277
 C        -0.118973        -0.052327        -0.285265
 O         0.466395        -0.835296         1.872487
 H         1.729792        -2.266108        -0.532149
 H         3.021050        -1.463494        -1.460338
 H         3.478226        -2.446232         0.021489
 H         4.526349         0.360874         0.431018
 H         3.428869         2.293830         2.069534
 H         0.780968         1.714504         2.193312
 H        -0.860237        -0.901441        -0.107020
 H        -0.534688         0.995872        -0.178480
 H         0.191344        -0.169954        -1.365780
 H         1.051360        -0.610190         2.643775
