19
Iteration:  3523charge 0 multiplicity 1
 C         2.694870        -1.708171        -0.541533
 C         2.456187        -0.650420         0.544206
 O         3.498847        -0.689960         1.562536
 C         3.433600         0.447168         0.806762
 C         2.694553         1.621457         1.443605
 C         1.405663         1.284608         1.487379
 C         1.119743        -0.161903         1.032944
 C         0.056158        -0.013162        -0.061977
 O         0.537533        -1.130801         1.920804
 H         1.811403        -1.685149        -1.052872
 H         3.507204        -1.431864        -1.258763
 H         2.866309        -2.681144        -0.054852
 H         4.320221         0.593194         0.231280
 H         3.126690         2.565649         1.709582
 H         0.547064         1.913547         1.803671
 H         0.518041         0.379864        -0.962178
 H        -0.407946        -0.991220        -0.176607
 H        -0.688339         0.753786         0.168821
 H         1.053056        -0.991465         2.816495
