19
Iteration:  3762
 C         2.786825        -1.667603        -0.674022
 C         2.477070        -0.715889         0.564368
 O         3.413398        -0.675329         1.616045
 C         3.366954         0.481073         0.660849
 C         2.665311         1.665359         1.243838
 C         1.418014         1.236987         1.586421
 C         1.146107        -0.177433         1.081878
 C         0.076457        -0.078160        -0.017864
 O         0.534275        -1.067730         2.105900
 H         2.151831        -2.450086        -0.966815
 H         2.775273        -1.058555        -1.611360
 H         3.719025        -2.215219        -0.500167
 H         4.201870         0.787935        -0.037851
 H         3.167889         2.653415         1.416967
 H         0.636323         1.670083         2.189101
 H         0.308148         0.733671        -0.728379
 H        -0.076852        -1.025331        -0.508092
 H        -0.824939         0.119070         0.509737
 H         1.098018        -1.126572         2.842670
