19
Iteration:  1992
 C         2.450850        -1.811365        -0.394895
 C         2.492460        -0.658477         0.575490
 O         3.439731        -0.753386         1.664816
 C         3.451058         0.515826         0.777803
 C         2.724466         1.609243         1.547945
 C         1.498518         1.162931         1.636529
 C         1.146699        -0.104514         0.860473
 C         0.287262         0.116369        -0.244171
 O         0.486469        -1.023379         1.721867
 H         1.868816        -2.639657         0.129546
 H         1.807999        -1.793900        -1.317660
 H         3.417657        -2.186191        -0.579337
 H         4.465450         0.599679         0.396748
 H         3.049012         2.479753         2.169750
 H         0.751379         1.532537         2.318132
 H         0.390270         1.065802        -0.822599
 H         0.283541        -0.722639        -1.006073
 H        -0.663577         0.218728         0.286566
 H         0.761597        -0.951644         2.614337
