19
Iteration:    69charge 0 multiplicity 1
 C         2.661779        -1.918407        -0.364937
 C         2.490450        -0.699021         0.503532
 O         3.328276        -0.662841         1.661678
 C         3.412575         0.442132         0.696386
 C         2.710162         1.575709         1.359552
 C         1.483265         1.144925         1.739933
 C         1.116665        -0.176483         0.957456
 C         0.239372         0.266524        -0.219037
 O         0.463211        -0.977802         1.842010
 H         2.118274        -2.773855         0.045705
 H         2.187761        -1.849286        -1.327115
 H         3.781109        -2.139281        -0.451627
 H         4.363044         0.438015         0.119972
 H         3.024992         2.600194         1.652203
 H         0.713043         1.522247         2.466401
 H        -0.059997        -0.594473        -0.872547
 H        -0.661448         0.890025         0.028046
 H         0.863736         0.883708        -0.864526
 H         1.189799        -1.216243         2.563851
