19
Iteration:  3253charge 0 multiplicity 1
 C         2.863127        -1.611144        -0.522196
 C         2.508399        -0.673836         0.501019
 O         3.371661        -0.784555         1.618476
 C         3.444297         0.487139         0.740663
 C         2.644987         1.585011         1.428453
 C         1.352469         1.155153         1.494661
 C         1.108964        -0.179156         0.879838
 C        -0.236448        -0.063135         0.014272
 O         0.767536        -0.918149         1.987803
 H         3.898638        -1.816356        -0.563823
 H         2.305606        -2.608022        -0.491712
 H         2.719468        -1.017084        -1.500354
 H         4.353119         0.548060         0.152760
 H         3.171547         2.525027         1.709015
 H         0.527425         1.608688         1.992392
 H         0.089460         0.006219        -1.044442
 H        -0.939360        -0.906052         0.200026
 H        -0.600597         0.915721         0.415906
 H         1.581392        -1.280436         2.484797
