19
Iteration:  1453charge 0 multiplicity 1
 C         2.493708        -1.773859        -0.377933
 C         2.494143        -0.640249         0.521777
 O         3.413694        -0.772026         1.605488
 C         3.483011         0.396619         0.871510
 C         2.740161         1.528955         1.567573
 C         1.424877         1.214997         1.616602
 C         1.167466        -0.079322         0.897502
 C         0.220289         0.184590        -0.361996
 O         0.455441        -1.002864         1.858500
 H         1.944732        -2.573334         0.122193
 H         2.069123        -1.741197        -1.389477
 H         3.490387        -2.136731        -0.555226
 H         4.436086         0.552147         0.332280
 H         3.168473         2.418601         2.053752
 H         0.776785         1.760840         2.258792
 H         0.783192         0.723769        -1.101744
 H         0.058503        -0.793916        -0.889815
 H        -0.638060         0.711836        -0.006878
 H         1.278317        -1.369787         2.426082
