19
Iteration:   630
 C         2.509829        -1.734456        -0.366028
 C         2.498231        -0.639950         0.647375
 O         3.349429        -0.778260         1.827770
 C         3.482912         0.368106         0.785200
 C         2.817245         1.558872         1.324903
 C         1.509531         1.310223         1.570617
 C         1.123292        -0.078020         0.958812
 C         0.217141         0.176411        -0.218697
 O         0.454793        -1.161065         1.679804
 H         1.938034        -2.618266        -0.103936
 H         1.977864        -1.216035        -1.173728
 H         3.520785        -1.988881        -0.698264
 H         4.467144         0.397289         0.261005
 H         3.239424         2.573281         1.584318
 H         0.905734         2.146968         2.046027
 H        -0.353860        -0.747357        -0.342645
 H        -0.508636         0.996031         0.017466
 H         0.709416         0.405024        -1.191981
 H         0.898989        -1.328279         2.551326
