19
Iteration:  4464
 C         2.569026        -1.699007        -0.679311
 C         2.490369        -0.623674         0.491379
 O         3.445303        -0.685530         1.602072
 C         3.428893         0.489059         0.685525
 C         2.668825         1.599829         1.355158
 C         1.339494         1.293183         1.556391
 C         1.157441        -0.158627         1.046073
 C         0.039020        -0.308688        -0.069273
 O         0.695729        -0.896794         2.137431
 H         2.625508        -1.169383        -1.688972
 H         3.531349        -2.283206        -0.564181
 H         1.593466        -2.270001        -0.678834
 H         4.389425         0.700654         0.289874
 H         3.214426         2.489134         1.773414
 H         0.578052         1.914009         2.100415
 H         0.333048         0.301612        -0.970827
 H         0.186833        -1.368584        -0.452990
 H        -0.919592        -0.018559         0.464077
 H         1.458388        -0.944328         2.764452
