19
Iteration:     5charge 0 multiplicity 1
 C         2.613584        -1.676007        -0.521761
 C         2.505027        -0.644144         0.537102
 O         3.338423        -0.840718         1.691289
 C         3.490234         0.353035         0.894883
 C         2.780588         1.580184         1.455647
 C         1.458292         1.293144         1.472653
 C         1.099204        -0.082700         0.916501
 C         0.089808        -0.019541        -0.200553
 O         0.522828        -0.961502         1.920841
 H         2.024727        -2.556597        -0.249805
 H         2.208971        -1.305809        -1.449363
 H         3.713456        -1.900961        -0.495343
 H         4.460790         0.602194         0.467194
 H         3.350452         2.483013         1.712433
 H         0.724180         2.067215         1.761121
 H        -0.038289        -1.096696        -0.460094
 H        -0.801089         0.502052         0.195392
 H         0.402364         0.604206        -1.042242
 H         1.291224        -1.081761         2.610744
