19
Iteration:  4050
 C         2.682508        -1.826094        -0.542501
 C         2.531946        -0.666152         0.489766
 O         3.558119        -0.689847         1.522764
 C         3.341027         0.537797         0.757755
 C         2.610260         1.602183         1.433310
 C         1.290112         1.319178         1.555699
 C         1.123028        -0.203232         0.985937
 C         0.089174        -0.125714        -0.074812
 O         0.614144        -0.925759         2.035706
 H         1.996327        -2.664207        -0.121979
 H         2.384587        -1.510133        -1.546063
 H         3.741338        -2.034782        -0.553077
 H         4.222781         0.837282         0.163120
 H         3.170568         2.478778         1.821962
 H         0.717035         1.922829         2.272541
 H         0.232544         0.587264        -0.816864
 H         0.113035        -0.885346        -0.865036
 H        -0.972115        -0.114371         0.247250
 H         1.187134        -1.284503         2.696038
