19
Iteration:    67charge 0 multiplicity 1
 C         2.635090        -1.904700        -0.365463
 C         2.490752        -0.712777         0.509318
 O         3.322447        -0.648370         1.679089
 C         3.433334         0.444709         0.707450
 C         2.710650         1.580488         1.365716
 C         1.492601         1.126814         1.736077
 C         1.135737        -0.171755         0.962167
 C         0.227654         0.267675        -0.230847
 O         0.476458        -0.983732         1.819455
 H         2.113602        -2.746102         0.111706
 H         2.176517        -1.808747        -1.312279
 H         3.724493        -2.194285        -0.500330
 H         4.301861         0.439389         0.093803
 H         3.020136         2.616799         1.581924
 H         0.706036         1.533710         2.388185
 H        -0.124885        -0.579987        -0.837715
 H        -0.664078         0.820535         0.089023
 H         0.819438         0.860346        -0.893647
 H         1.191818        -1.257536         2.583939
