19
Iteration:  1853charge 0 multiplicity 1
 C         2.763293        -1.684533        -0.760466
 C         2.508403        -0.642255         0.426573
 O         3.239987        -0.972311         1.639140
 C         3.559002         0.381505         1.099022
 C         2.744518         1.432406         1.679042
 C         1.411517         1.339801         1.395856
 C         1.130294        -0.079872         0.877724
 C        -0.021382        -0.216895        -0.299407
 O         0.559469        -0.608284         2.090456
 H         1.878805        -2.392077        -1.007544
 H         2.947872        -1.002272        -1.692370
 H         3.671605        -2.249739        -0.528113
 H         4.624805         0.646521         1.079056
 H         3.209496         2.234568         2.258134
 H         0.678876         1.953730         1.889149
 H         0.408437         0.416567        -1.132695
 H        -0.220921        -1.244157        -0.757914
 H        -0.910210         0.355208         0.078239
 H         1.326958        -0.656642         2.621632
