19
Iteration:  2331
 C         2.856480        -1.775704        -0.429900
 C         2.442305        -0.621441         0.506016
 O         3.405453        -0.843312         1.690293
 C         3.482938         0.372059         0.752144
 C         2.687080         1.481356         1.451452
 C         1.424382         1.267089         1.662308
 C         1.081472        -0.100834         1.004118
 C         0.150495         0.177442        -0.183364
 O         0.352238        -0.923122         1.768462
 H         2.976244        -2.601098         0.252009
 H         2.110315        -2.006938        -1.180721
 H         3.879357        -1.545675        -0.891025
 H         4.289135         0.370936         0.031712
 H         3.312050         2.334186         1.809361
 H         0.762476         2.026366         2.002486
 H         0.645620         0.917206        -0.909161
 H        -0.113972        -0.787043        -0.660934
 H        -0.810831         0.620165         0.138374
 H         0.876683        -1.531581         2.410364
