19
Iteration:  2594
 C         2.640663        -1.649237        -0.457528
 C         2.543021        -0.681689         0.559336
 O         3.308947        -0.673372         1.834000
 C         3.501350         0.415119         0.829603
 C         2.790340         1.625522         1.227608
 C         1.570664         1.171702         1.589674
 C         1.056523        -0.196233         0.946867
 C         0.154009         0.158401        -0.196328
 O         0.375383        -1.147785         1.817888
 H         2.025869        -1.372184        -1.332731
 H         3.703689        -1.815193        -0.766349
 H         2.307343        -2.666029        -0.192443
 H         4.573269         0.546222         0.468082
 H         3.184456         2.489069         1.748405
 H         0.843920         1.708473         2.204887
 H         0.449735         1.049938        -0.709109
 H         0.172699        -0.672911        -0.921218
 H        -0.876709         0.314278         0.178273
 H         1.141308        -1.436270         2.399406
