19
Iteration:  1876charge 0 multiplicity 1
 C         2.702536        -1.393714        -0.710628
 C         2.478950        -0.620833         0.519321
 O         3.204566        -1.081026         1.774631
 C         3.493855         0.269071         1.030799
 C         2.777233         1.506894         1.586613
 C         1.438841         1.357085         1.342841
 C         1.159204         0.027116         0.895777
 C         0.070162        -0.259958        -0.209699
 O         0.589176        -0.724170         1.985083
 H         1.786285        -2.046054        -0.844985
 H         2.906441        -0.928754        -1.723275
 H         3.491628        -2.178048        -0.403382
 H         4.425157         0.416063         0.419772
 H         3.205932         2.442902         2.039558
 H         0.591806         1.999171         1.525092
 H         0.614124        -0.157000        -1.163561
 H        -0.168086        -1.332589        -0.115669
 H        -0.848344         0.448864        -0.175050
 H         1.401957        -1.273900         2.333924
