19
Iteration:  3996
 C         2.692340        -1.645908        -0.735796
 C         2.539389        -0.722082         0.596327
 O         3.400819        -0.683409         1.751651
 C         3.462914         0.453313         0.780910
 C         2.613078         1.665067         1.289223
 C         1.392169         1.258105         1.547329
 C         1.107278        -0.121508         0.945522
 C         0.003494        -0.128649        -0.035037
 O         0.667806        -1.053153         1.996641
 H         3.009263        -2.717714        -0.371344
 H         1.699514        -1.721844        -1.134475
 H         3.539490        -1.292533        -1.275448
 H         4.418639         0.459295         0.270791
 H         3.017340         2.639997         1.566881
 H         0.645668         1.920536         1.948573
 H         0.350332        -0.123961        -1.058494
 H        -0.545460        -1.091672         0.244834
 H        -0.742139         0.729808        -0.004539
 H         1.346353        -0.983509         2.679914
