19
Iteration:  4884
 C         2.781230        -1.697970        -0.568259
 C         2.538504        -0.680304         0.546083
 O         3.439890        -0.725144         1.685322
 C         3.518764         0.443042         0.759430
 C         2.734712         1.630859         1.233519
 C         1.433777         1.302762         1.463949
 C         1.105272        -0.173013         1.040812
 C        -0.107440        -0.008494        -0.075657
 O         0.463055        -1.065049         2.048997
 H         3.754902        -2.148505        -0.367925
 H         2.080781        -2.586645        -0.439596
 H         2.884248        -1.309576        -1.617043
 H         4.443487         0.474453         0.135422
 H         3.047829         2.668671         1.358453
 H         0.667637         1.878961         1.939950
 H         0.206808         0.733061        -0.818814
 H        -0.242443        -0.981819        -0.500743
 H        -0.895913         0.422102         0.505881
 H         1.107969        -1.178616         2.757089
