19
Iteration:   588
 C         2.758119        -1.751533        -0.582931
 C         2.547167        -0.728507         0.557132
 O         3.216654        -0.822306         1.753253
 C         3.475470         0.343680         0.841884
 C         2.778204         1.560993         1.411644
 C         1.427248         1.281031         1.478298
 C         1.079239        -0.114876         0.961674
 C         0.191353         0.157603        -0.169810
 O         0.471126        -0.957315         1.952444
 H         1.892098        -2.460179        -0.570142
 H         2.719428        -1.188140        -1.590402
 H         3.712293        -2.312819        -0.631219
 H         4.458411         0.342732         0.370188
 H         3.328952         2.458367         1.810356
 H         0.514872         1.903929         1.767818
 H        -0.705451        -0.508609        -0.189972
 H        -0.300761         1.188154        -0.014816
 H         0.625396         0.344639        -1.203755
 H         1.222812        -1.147659         2.490980
