19
Iteration:  4872charge 0 multiplicity 1
 C         2.843834        -1.689256        -0.551715
 C         2.554727        -0.596163         0.457150
 O         3.463624        -0.851307         1.604343
 C         3.476892         0.432605         0.831086
 C         2.651498         1.554618         1.255313
 C         1.370881         1.287883         1.415376
 C         1.020021        -0.096134         1.054983
 C         0.001882        -0.078775         0.015820
 O         0.495218        -0.914824         2.077059
 H         3.712995        -2.182535        -0.155227
 H         1.960764        -2.360042        -0.669244
 H         2.976603        -1.358996        -1.610238
 H         4.463223         0.699640         0.418436
 H         3.229566         2.505419         1.373678
 H         0.716592         2.002749         1.875860
 H         0.176130         0.569655        -0.820730
 H        -0.282553        -1.029210        -0.393390
 H        -0.990632         0.143061         0.336247
 H         1.219219        -1.374517         2.506165
