19
Iteration:   235charge 0 multiplicity 1
 C         2.779457        -1.510922        -0.629629
 C         2.478023        -0.726324         0.595399
 O         3.354068        -0.962680         1.731936
 C         3.521177         0.269388         0.861486
 C         2.906462         1.508046         1.468941
 C         1.518322         1.379474         1.353232
 C         1.056543        -0.027123         0.944361
 C        -0.047938        -0.167028        -0.146560
 O         0.373064        -0.779968         2.014607
 H         1.902388        -2.122507        -1.025566
 H         2.913627        -0.808741        -1.546160
 H         3.640743        -2.158398        -0.476743
 H         4.388052         0.304229         0.192555
 H         3.550253         2.344829         1.792283
 H         0.928312         2.270548         1.590414
 H         0.043439        -1.207704        -0.582583
 H        -1.057455        -0.144625         0.342911
 H         0.007738         0.673719        -0.919737
 H         1.059620        -0.845168         2.827014
