19
Iteration:   684
 C         2.744747        -1.909504        -0.422241
 C         2.533176        -0.634772         0.558438
 O         3.439341        -0.896651         1.562728
 C         3.440034         0.430518         0.735811
 C         2.722740         1.449200         1.581437
 C         1.414802         1.274779         1.654857
 C         1.021753        -0.058958         0.908687
 C         0.222232         0.127387        -0.358603
 O         0.351270        -0.752633         1.958981
 H         2.253771        -2.669067         0.139959
 H         2.339656        -1.851403        -1.426938
 H         3.793545        -2.108164        -0.603922
 H         4.415071         0.392888         0.242430
 H         3.344977         2.288632         2.055638
 H         0.629636         1.874101         2.226603
 H         0.507899        -0.553874        -1.111965
 H        -0.832832        -0.085786        -0.222547
 H         0.262345         1.151368        -0.715323
 H         0.996322        -1.056118         2.663135
