19
Iteration:   641charge 0 multiplicity 1
 C         2.506882        -1.806592        -0.390045
 C         2.549655        -0.697803         0.602030
 O         3.375121        -0.727717         1.776399
 C         3.529724         0.449156         0.722616
 C         2.804167         1.486538         1.487111
 C         1.497599         1.322714         1.530648
 C         1.130304        -0.073573         0.974761
 C         0.183026         0.172662        -0.231233
 O         0.390869        -1.097043         1.731158
 H         2.019638        -2.624308         0.146501
 H         1.996571        -1.680742        -1.357391
 H         3.505244        -2.152887        -0.673151
 H         4.527229         0.661044         0.283016
 H         3.411710         2.385773         1.858494
 H         0.632407         1.941776         1.945784
 H        -0.213216        -0.757751        -0.650214
 H        -0.692409         0.845549        -0.008269
 H         0.815075         0.698980        -1.001646
 H         0.885019        -1.228248         2.481716
