19
Iteration:  1156
 C         2.703469        -1.759403        -0.474346
 C         2.529800        -0.602387         0.448348
 O         3.300862        -0.799807         1.681107
 C         3.503440         0.357641         0.862569
 C         2.765308         1.521964         1.399923
 C         1.460674         1.183289         1.580511
 C         1.117786        -0.059072         0.974769
 C         0.077688         0.195111        -0.194126
 O         0.452278        -1.007404         1.885681
 H         2.065466        -2.544534        -0.126240
 H         2.521131        -1.634294        -1.493787
 H         3.766932        -2.122781        -0.392604
 H         4.449474         0.500538         0.384056
 H         3.175679         2.524365         1.700124
 H         0.805886         1.812284         2.182591
 H         0.171609         1.160252        -0.619263
 H         0.287882        -0.405993        -1.000845
 H        -0.825599         0.117016         0.207797
 H         1.187472        -1.406044         2.413468
