19
Iteration:  2738
 C         2.722915        -1.573665        -0.688876
 C         2.563074        -0.686158         0.507389
 O         3.287320        -0.838684         1.759368
 C         3.508162         0.350447         1.092070
 C         2.682534         1.548809         1.409928
 C         1.371276         1.300304         1.372928
 C         1.106973        -0.152770         0.920020
 C        -0.012583        -0.078197        -0.156795
 O         0.638022        -0.883042         1.995388
 H         3.580277        -2.388325        -0.681069
 H         1.803422        -2.079288        -1.007821
 H         3.014396        -1.000270        -1.556463
 H         4.501532         0.447080         0.720857
 H         3.324972         2.354478         1.782799
 H         0.710759         2.131520         1.692093
 H         0.043073         0.708188        -0.945294
 H        -0.036489        -1.009242        -0.775529
 H        -1.000628         0.148465         0.227859
 H         1.502850        -1.139025         2.494139
