19
Iteration:  3367charge 0 multiplicity 1
 C         2.894267        -1.671258        -0.620339
 C         2.493925        -0.653012         0.480028
 O         3.351026        -0.793326         1.513043
 C         3.411714         0.469640         0.787626
 C         2.674625         1.550494         1.324956
 C         1.381163         1.274172         1.529133
 C         1.051749        -0.099793         1.086172
 C        -0.031703        -0.090454         0.043800
 O         0.615188        -0.992485         2.008923
 H         3.727753        -1.211644        -1.177524
 H         3.222856        -2.572814        -0.163398
 H         2.254714        -1.900386        -1.386702
 H         4.381497         0.581107         0.243841
 H         3.009018         2.511997         1.615404
 H         0.678874         1.736719         2.218385
 H         0.346242         0.479073        -0.817285
 H        -0.417236        -1.074893        -0.254210
 H        -0.774139         0.553281         0.527506
 H         1.159527        -0.757894         2.758829
