19
Iteration:  3020charge 0 multiplicity 1
 C         2.810346        -1.626415        -0.636675
 C         2.559235        -0.621507         0.473657
 O         3.410256        -0.859686         1.612914
 C         3.431831         0.421096         0.867591
 C         2.692129         1.545258         1.596957
 C         1.419759         1.370373         1.499585
 C         1.057010        -0.043111         0.865950
 C        -0.107825        -0.245402        -0.147028
 O         0.589660        -0.869151         2.000550
 H         2.293828        -1.451955        -1.655750
 H         3.839589        -1.797016        -0.804511
 H         2.291937        -2.520582        -0.377382
 H         4.418806         0.732160         0.510965
 H         3.266868         2.405540         1.987068
 H         0.739996         1.990911         2.064945
 H         0.157393        -0.065251        -1.218811
 H        -0.235885        -1.293584         0.158742
 H        -0.977032         0.260993         0.241578
 H         1.416621        -1.065349         2.532350
