19
Iteration:    15charge 0 multiplicity 1
 C         2.497688        -1.660726        -0.405260
 C         2.467028        -0.608092         0.575265
 O         3.449853        -0.882448         1.693944
 C         3.514774         0.415765         0.934185
 C         2.813479         1.602396         1.457109
 C         1.485784         1.393210         1.441364
 C         1.117062        -0.036543         0.929404
 C         0.081386         0.018745        -0.184691
 O         0.495316        -1.144501         1.804631
 H         2.005535        -2.545440        -0.022436
 H         2.165075        -1.357097        -1.359140
 H         3.581756        -1.954988        -0.594418
 H         4.452116         0.517697         0.413398
 H         3.313513         2.573728         1.469948
 H         0.719910         2.172510         1.351326
 H        -0.233053        -1.033055        -0.417298
 H        -0.856586         0.390893         0.268858
 H         0.371716         0.488822        -1.116250
 H         1.194192        -1.191488         2.559881
