19
Iteration:  1565
 C         2.661389        -1.470915        -0.740663
 C         2.554288        -0.671347         0.571225
 O         3.285733        -1.042299         1.720982
 C         3.551776         0.295108         1.017507
 C         2.767322         1.452213         1.553147
 C         1.433095         1.315854         1.375811
 C         1.081984        -0.142487         0.870755
 C         0.231634        -0.125750        -0.316892
 O         0.388961        -0.677741         2.150507
 H         2.075985        -2.418893        -0.794575
 H         2.218403        -0.854466        -1.508491
 H         3.828799        -1.544624        -0.842248
 H         4.459327         0.312409         0.420325
 H         3.268900         2.279490         2.008323
 H         0.579688         1.977192         1.529621
 H         0.559895         0.524827        -1.163289
 H         0.038917        -1.122277        -0.698648
 H        -0.809421         0.327446        -0.059018
 H         1.161123        -0.665885         2.705348
