19
Iteration:  3368charge 0 multiplicity 1
 C         2.894696        -1.669895        -0.610297
 C         2.490076        -0.645715         0.475195
 O         3.347608        -0.794672         1.510740
 C         3.412424         0.470932         0.790188
 C         2.677778         1.545861         1.326330
 C         1.385561         1.270670         1.536377
 C         1.053082        -0.095083         1.084470
 C        -0.041002        -0.083507         0.034268
 O         0.621476        -0.999484         2.003916
 H         3.677697        -1.231281        -1.168696
 H         3.254429        -2.580395        -0.146057
 H         2.232984        -1.919327        -1.363178
 H         4.387055         0.599167         0.253566
 H         3.011399         2.547104         1.583501
 H         0.679719         1.736064         2.207665
 H         0.358708         0.449427        -0.802173
 H        -0.402451        -1.083589        -0.231005
 H        -0.813600         0.550040         0.507335
 H         1.194854        -0.750767         2.778517
