19
Iteration:  4934charge 0 multiplicity 1
 C         2.514462        -1.880468        -0.309539
 C         2.496322        -0.608294         0.485472
 O         3.473900        -0.707237         1.533234
 C         3.422117         0.551319         0.771062
 C         2.658001         1.700638         1.310825
 C         1.454790         1.276342         1.664322
 C         1.093973        -0.143177         1.044584
 C         0.178071         0.023843        -0.219557
 O         0.566740        -1.136805         1.923728
 H         3.401012        -2.070667        -0.948371
 H         2.499425        -2.692777         0.359436
 H         1.691400        -1.806734        -1.003312
 H         4.341198         0.732498         0.243226
 H         3.054117         2.738352         1.532658
 H         0.593195         1.859908         2.007550
 H         0.891446         0.505938        -0.920999
 H        -0.038722        -0.992275        -0.626571
 H        -0.712784         0.640306         0.139650
 H         1.378612        -1.318883         2.433608
