19
Iteration:  2470
 C         2.854304        -1.552453        -0.701578
 C         2.510864        -0.659134         0.521834
 O         3.271650        -0.892000         1.822859
 C         3.540356         0.296623         1.035396
 C         2.754305         1.500899         1.433248
 C         1.408993         1.317984         1.340283
 C         1.027069        -0.133158         0.891096
 C         0.001765         0.028300        -0.155544
 O         0.521783        -0.899956         1.998933
 H         1.964265        -1.865180        -1.336249
 H         3.545604        -1.112049        -1.416359
 H         3.285727        -2.523906        -0.439560
 H         4.546795         0.227856         0.633558
 H         3.080007         2.479192         1.843820
 H         0.670946         2.033819         1.654613
 H         0.342627         0.820946        -0.891117
 H        -0.094699        -0.902225        -0.720792
 H        -0.977398         0.227153         0.269162
 H         1.323501        -1.173172         2.385849
