19
Iteration:  1529
 C         2.747108        -1.517519        -0.680046
 C         2.468483        -0.729651         0.584293
 O         3.234862        -0.940969         1.846460
 C         3.565412         0.226549         0.958573
 C         2.803950         1.562547         1.347325
 C         1.495600         1.341840         1.478512
 C         1.092206        -0.070995         0.963058
 C         0.118669         0.037816        -0.243943
 O         0.404116        -0.899205         1.962245
 H         2.123781        -2.364771        -0.844053
 H         2.612207        -0.764020        -1.447657
 H         3.751022        -1.907903        -0.828517
 H         4.574973         0.205467         0.564654
 H         3.441551         2.462730         1.537162
 H         0.643610         2.038000         1.734571
 H         0.400151         0.634273        -1.072315
 H        -0.101827        -0.985126        -0.586383
 H        -0.777266         0.333347         0.247312
 H         1.161881        -1.288172         2.373068
