19
Iteration:  4643charge 0 multiplicity 1
 C         2.784451        -1.840026        -0.468483
 C         2.481852        -0.708367         0.576352
 O         3.491368        -0.687358         1.496306
 C         3.413270         0.522132         0.563155
 C         2.597030         1.630905         1.275445
 C         1.405029         1.256796         1.699298
 C         1.049912        -0.114807         1.124544
 C         0.152359         0.015552        -0.070615
 O         0.453227        -1.102476         2.007417
 H         3.571148        -2.296763         0.125077
 H         1.846359        -2.279252        -0.751711
 H         3.089197        -1.301698        -1.365740
 H         4.207403         0.700277        -0.178826
 H         3.192546         2.512852         1.495343
 H         0.772320         1.988522         2.262503
 H         0.829941         0.391282        -0.843103
 H        -0.562963        -0.802861        -0.269230
 H        -0.395158         0.947132        -0.029404
 H         1.284251        -1.241307         2.595404
