19
Iteration:  4534
 C         2.706080        -1.596279        -0.694791
 C         2.566476        -0.651116         0.436349
 O         3.323631        -0.751246         1.637095
 C         3.461242         0.408224         0.821173
 C         2.656139         1.629017         1.340028
 C         1.418933         1.257368         1.445952
 C         1.106855        -0.181337         0.968355
 C        -0.137590        -0.251507        -0.010828
 O         0.753667        -0.877316         2.140665
 H         1.859345        -2.126446        -1.124144
 H         3.200145        -1.137168        -1.545360
 H         3.367588        -2.392664        -0.320939
 H         4.534298         0.488383         0.451745
 H         2.899696         2.610798         1.744974
 H         0.656732         1.843553         1.929168
 H         0.194142         0.201559        -1.036071
 H        -0.503188        -1.327691        -0.076283
 H        -0.776673         0.500351         0.576131
 H         1.556846        -0.841063         2.779700
