19
Iteration:  3129
 C         2.741932        -1.828238        -0.556757
 C         2.508219        -0.637012         0.399458
 O         3.386607        -0.588040         1.777077
 C         3.420675         0.469184         0.795791
 C         2.711658         1.611871         1.325456
 C         1.457519         1.225661         1.627276
 C         1.097928        -0.100336         0.969304
 C        -0.046033         0.060914        -0.048228
 O         0.613557        -1.171956         1.846907
 H         2.872847        -1.299900        -1.565867
 H         3.616652        -2.378533        -0.227071
 H         1.877043        -2.475997        -0.583643
 H         4.319687         0.605589         0.107036
 H         3.292507         2.509113         1.599968
 H         0.781875         1.806971         2.255505
 H         0.204025         0.509044        -0.995794
 H        -0.402943        -0.929573        -0.271786
 H        -0.844546         0.616235         0.395956
 H         1.140537        -1.293371         2.650113
