19
Iteration:  1392charge 0 multiplicity 1
 C         2.782641        -1.608538        -0.585138
 C         2.492146        -0.779041         0.568933
 O         3.505498        -0.775587         1.748973
 C         3.542938         0.330925         0.776327
 C         2.751857         1.490897         1.385041
 C         1.483396         1.141658         1.636105
 C         1.021981        -0.184403         0.968948
 C         0.117824         0.179786        -0.231827
 O         0.237777        -0.885922         1.930858
 H         2.413155        -2.634103        -0.404099
 H         2.474547        -1.031395        -1.445220
 H         3.951364        -1.805559        -0.568810
 H         4.382575         0.413652         0.135096
 H         3.105246         2.482644         1.713808
 H         0.697850         1.903806         1.901857
 H         0.826981         0.531297        -1.010161
 H        -0.499773        -0.638864        -0.602605
 H        -0.776952         0.881430        -0.011974
 H         0.775032        -1.246888         2.697492
