19
Iteration:  4690
 C         2.469558        -1.825648        -0.394222
 C         2.569241        -0.671579         0.590323
 O         3.554092        -0.591833         1.615589
 C         3.469836         0.541499         0.657469
 C         2.666612         1.598237         1.370405
 C         1.348182         1.259345         1.541263
 C         1.154067        -0.167078         1.047531
 C         0.060240        -0.009243        -0.191270
 O         0.612867        -1.134794         1.889687
 H         3.369466        -2.275890        -0.647486
 H         1.640288        -2.359553         0.042325
 H         1.936714        -1.348694        -1.157459
 H         4.433402         0.784626         0.235350
 H         3.301830         2.449337         1.677533
 H         0.673823         1.721623         2.247776
 H         0.521987         0.573334        -1.026565
 H        -0.208788        -1.044719        -0.196875
 H        -0.794657         0.640172         0.106240
 H         1.173027        -1.088620         2.666633
