19
Iteration:  1607
 C         2.762916        -1.668600        -0.593320
 C         2.490489        -0.593851         0.437879
 O         3.177824        -0.934472         1.687906
 C         3.558337         0.356030         0.999884
 C         2.810336         1.407485         1.703078
 C         1.522978         1.344119         1.425500
 C         1.175374         0.061298         0.796576
 C        -0.081853        -0.154779        -0.221928
 O         0.542098        -0.791866         1.881505
 H         2.109343        -2.477584        -0.352665
 H         2.508846        -1.350634        -1.558015
 H         3.877982        -1.861445        -0.468013
 H         4.562827         0.556798         0.636976
 H         3.175901         2.082730         2.454278
 H         0.885295         2.161972         1.804871
 H         0.039147         0.227778        -1.215640
 H        -0.421609        -1.150357        -0.118367
 H        -0.915315         0.524470         0.096090
 H         1.352635        -0.978540         2.529693
