19
Iteration:  2929charge 0 multiplicity 1
 C         2.683660        -1.716526        -0.506162
 C         2.495645        -0.528137         0.444970
 O         3.468230        -0.699184         1.541576
 C         3.500057         0.503191         0.802358
 C         2.698706         1.489397         1.518165
 C         1.416645         1.189782         1.577057
 C         1.082123        -0.154017         0.961432
 C         0.092433        -0.112862        -0.121883
 O         0.470730        -0.982325         1.958176
 H         2.528085        -1.495483        -1.569874
 H         3.778005        -1.789561        -0.275470
 H         2.088283        -2.623847        -0.228863
 H         4.351449         0.669077         0.084328
 H         2.991645         2.434004         1.995235
 H         0.744557         2.049378         1.753092
 H         0.246882         0.768037        -0.693935
 H         0.102423        -1.032992        -0.702605
 H        -0.938182        -0.044351         0.271301
 H         1.014091        -0.946962         2.753263
