19
Iteration:  4670charge 0 multiplicity 1
 C         2.507852        -1.828605        -0.496385
 C         2.505719        -0.658858         0.514529
 O         3.546959        -0.541094         1.655606
 C         3.427226         0.523275         0.678180
 C         2.625632         1.686907         1.288525
 C         1.460758         1.073494         1.664810
 C         1.136962        -0.195319         1.012232
 C         0.171615         0.006600        -0.098944
 O         0.512156        -1.097149         1.956380
 H         3.429159        -2.350551        -0.127480
 H         1.629017        -2.400598        -0.133629
 H         2.566556        -1.591114        -1.567665
 H         4.248175         0.712053        -0.051539
 H         3.101386         2.684766         1.450105
 H         0.660700         1.599269         2.149168
 H         0.558532         0.380587        -1.093209
 H        -0.510506        -0.854750        -0.294236
 H        -0.369759         1.000358        -0.009389
 H         1.277569        -1.124793         2.629201
