19
Iteration:    96
 C         2.861599        -1.832747        -0.427965
 C         2.441475        -0.706265         0.554657
 O         3.505834        -0.802539         1.486818
 C         3.371756         0.389946         0.693683
 C         2.757121         1.506229         1.468762
 C         1.430105         1.317286         1.649587
 C         1.017884        -0.136680         1.083954
 C         0.258127         0.226718        -0.294526
 O         0.251363        -0.960241         2.019397
 H         2.384774        -2.782287        -0.110516
 H         2.509938        -1.839086        -1.502201
 H         3.909149        -1.851836        -0.291541
 H         4.047450         0.503014        -0.125563
 H         3.142302         2.422622         1.830921
 H         0.645157         1.925986         2.019289
 H         0.103383        -0.708240        -0.832490
 H        -0.693953         0.742426        -0.171649
 H         0.823613         0.905468        -0.983095
 H         0.909222        -1.156745         2.828514
