19
Iteration:  3195charge 0 multiplicity 1
 C         2.546084        -1.615728        -0.576099
 C         2.536288        -0.664821         0.596194
 O         3.534999        -0.713928         1.646846
 C         3.377966         0.507853         0.678768
 C         2.668218         1.581109         1.393381
 C         1.367176         1.175839         1.581158
 C         1.134237        -0.143451         1.027615
 C         0.163767        -0.155785        -0.176361
 O         0.539242        -0.952766         1.996721
 H         3.330726        -1.160550        -1.239543
 H         2.896098        -2.694047        -0.484497
 H         1.574893        -1.787781        -1.067196
 H         4.190590         0.714071        -0.069418
 H         3.105198         2.476368         1.811489
 H         0.638326         1.696975         2.287974
 H         0.491507         0.569790        -0.877472
 H         0.237191        -1.203379        -0.344884
 H        -0.822701         0.044213         0.228123
 H         1.209703        -1.072593         2.661751
