19
Iteration:  1910
 C         2.754429        -1.449102        -0.819012
 C         2.518554        -0.691709         0.573528
 O         3.165276        -0.933745         1.868130
 C         3.577722         0.278474         1.106076
 C         2.829240         1.579158         1.368817
 C         1.502821         1.309725         1.353653
 C         1.146817        -0.099771         0.893068
 C        -0.015880        -0.059050        -0.242506
 O         0.507434        -0.954299         2.062460
 H         2.067628        -2.328501        -0.790733
 H         2.497938        -0.712074        -1.601024
 H         3.883621        -1.800082        -1.009752
 H         4.646604         0.233990         0.709892
 H         3.284036         2.538348         1.736727
 H         0.654367         1.931276         1.673581
 H         0.429466         0.198922        -1.215974
 H        -0.501880        -1.013783        -0.361271
 H        -0.901451         0.730867        -0.181493
 H         0.968901        -0.859507         2.858316
