19
Iteration:  4241charge 0 multiplicity 1
 C         2.775173        -1.593651        -0.667771
 C         2.540892        -0.659619         0.539729
 O         3.389622        -0.805030         1.651826
 C         3.463427         0.422311         0.843341
 C         2.584185         1.647493         1.205981
 C         1.284552         1.282721         1.491147
 C         1.147443        -0.146540         0.986051
 C        -0.111419        -0.171563         0.016694
 O         0.780193        -0.964840         2.067009
 H         2.270243        -1.120824        -1.523608
 H         3.879390        -1.824123        -0.755573
 H         2.272951        -2.577389        -0.347015
 H         4.427362         0.526168         0.408460
 H         2.960311         2.660589         1.387945
 H         0.440214         1.876520         1.877243
 H         0.068212         0.616120        -0.754080
 H        -0.284841        -1.127091        -0.483736
 H        -0.971161         0.019586         0.638726
 H         1.576398        -0.974290         2.567830
