19
Iteration:  2502charge 0 multiplicity 1
 C         2.625630        -1.562605        -0.627007
 C         2.483879        -0.640419         0.520167
 O         3.302941        -0.946413         1.722571
 C         3.497111         0.412587         0.959983
 C         2.751957         1.591295         1.624586
 C         1.417706         1.411670         1.486122
 C         1.099142        -0.118798         0.858833
 C         0.220060        -0.185497        -0.276114
 O         0.511069        -0.897773         1.905327
 H         1.558921        -1.641432        -1.049485
 H         3.270209        -1.283620        -1.471884
 H         2.873961        -2.535226        -0.165225
 H         4.403073         0.234076         0.413753
 H         3.280957         2.582283         1.821491
 H         0.767743         1.951279         2.149049
 H         0.773790         0.088976        -1.252425
 H        -0.068698        -1.253772        -0.283997
 H        -0.647319         0.463596         0.001816
 H         1.173982        -0.865565         2.730820
