19
Iteration:  3334charge 0 multiplicity 1
 C         2.727048        -1.531363        -0.724705
 C         2.555422        -0.696539         0.561389
 O         3.540583        -0.701716         1.607793
 C         3.496242         0.458315         0.802320
 C         2.686343         1.541659         1.394677
 C         1.410622         1.134838         1.467016
 C         0.997103        -0.193351         1.017396
 C        -0.042246        -0.197490        -0.110114
 O         0.523344        -0.880004         2.180608
 H         3.798275        -1.818191        -0.808378
 H         2.137495        -2.410752        -0.713833
 H         2.370671        -0.926357        -1.478064
 H         4.398831         0.657593         0.177036
 H         3.043928         2.522753         1.405041
 H         0.725551         1.897259         1.896034
 H         0.154240         0.557205        -0.890291
 H        -0.322772        -1.127667        -0.604111
 H        -1.011099         0.150222         0.242648
 H         1.281653        -1.254616         2.771575
