19
Iteration:  1817
 C         2.758092        -1.612259        -0.544815
 C         2.506035        -0.690721         0.583476
 O         3.305765        -0.969735         1.702457
 C         3.498369         0.330163         0.929583
 C         2.784550         1.474797         1.496305
 C         1.446879         1.373047         1.421629
 C         1.078846        -0.045882         0.876069
 C         0.042427        -0.019682        -0.215841
 O         0.500997        -0.845587         1.915974
 H         2.280497        -2.628347        -0.507697
 H         2.602070        -1.160895        -1.580576
 H         3.847751        -1.685216        -0.535391
 H         4.491560         0.439505         0.543008
 H         3.341445         2.305152         1.930365
 H         0.617779         1.961028         1.876355
 H         0.176849         0.954496        -0.752499
 H        -0.105675        -0.889186        -0.924707
 H        -0.921929         0.122773         0.269675
 H         0.936431        -0.959921         2.727619
