19
Iteration:  1490charge 0 multiplicity 1
 C         2.669486        -1.870693        -0.442552
 C         2.518821        -0.630481         0.423766
 O         3.271391        -0.794355         1.685644
 C         3.511616         0.342062         0.906731
 C         2.778702         1.509798         1.614067
 C         1.461732         1.283284         1.537259
 C         1.167564         0.009626         0.822023
 C         0.014891         0.161171        -0.228833
 O         0.587133        -0.992075         1.786396
 H         1.781716        -2.524349        -0.171148
 H         2.542242        -1.567880        -1.491019
 H         3.684960        -2.327278        -0.074955
 H         4.563236         0.306336         0.633822
 H         3.127315         2.400930         2.140736
 H         0.634878         1.883022         1.980455
 H         0.206640         0.878254        -1.076346
 H        -0.503886        -0.761464        -0.499860
 H        -0.868688         0.768122         0.256697
 H         1.185985        -0.998971         2.646048
