19
Iteration:  4613
 C         2.696271        -1.742663        -0.493722
 C         2.508601        -0.683827         0.527382
 O         3.553791        -0.616804         1.559809
 C         3.473851         0.495215         0.702867
 C         2.710923         1.579344         1.331952
 C         1.415258         1.167834         1.563875
 C         1.129034        -0.201233         0.997417
 C        -0.023416        -0.050246        -0.118151
 O         0.445519        -0.984059         2.058724
 H         3.167159        -2.606259        -0.055168
 H         1.735684        -1.996010        -0.934850
 H         3.278311        -1.327023        -1.295971
 H         4.246452         0.712956         0.011459
 H         3.130300         2.553299         1.613085
 H         0.634198         1.714614         2.157910
 H         0.501451         0.579212        -0.866076
 H        -0.408659        -0.990774        -0.515589
 H        -0.788209         0.360245         0.613720
 H         1.152627        -1.025153         2.730520
