19
Iteration:  3963
 C         2.747646        -1.648519        -0.528905
 C         2.508140        -0.563528         0.486706
 O         3.372264        -0.812329         1.534625
 C         3.520811         0.515551         0.832912
 C         2.644225         1.611418         1.436071
 C         1.337747         1.254294         1.413612
 C         1.042013        -0.162056         0.941242
 C        -0.089625        -0.131199        -0.096100
 O         0.728899        -0.982673         2.094451
 H         3.257936        -2.446160         0.201194
 H         1.938596        -2.141185        -1.029030
 H         3.388477        -1.459826        -1.379632
 H         4.472812         0.472093         0.377931
 H         2.892435         2.483684         2.039910
 H         0.672029         1.892943         1.896548
 H         0.504288        -0.154771        -0.994184
 H        -0.686898        -1.097583         0.008447
 H        -0.674484         0.847255         0.063196
 H         1.645397        -1.052022         2.418095
