19
Iteration:  3797
 C         2.472495        -1.684504        -0.550536
 C         2.484794        -0.565877         0.550511
 O         3.526920        -0.657596         1.541781
 C         3.486135         0.550502         0.814358
 C         2.641592         1.592857         1.390291
 C         1.336365         1.238792         1.472337
 C         1.160908        -0.178570         1.053731
 C         0.102289        -0.153997        -0.206746
 O         0.656839        -1.108175         2.109148
 H         1.510205        -2.085761        -0.409999
 H         2.736494        -1.230500        -1.483333
 H         3.301963        -2.375229        -0.322227
 H         4.327522         0.763460         0.094736
 H         3.073822         2.532294         1.588328
 H         0.532762         1.718672         2.046594
 H         0.399104         0.541230        -1.054662
 H        -0.164915        -1.112178        -0.625690
 H        -0.715688         0.317012         0.293066
 H         1.412587        -1.273889         2.671126
