19
Iteration:  2987
 C         2.680438        -1.446107        -0.637183
 C         2.565240        -0.649427         0.530116
 O         3.238256        -0.798721         1.737075
 C         3.477447         0.415307         0.933989
 C         2.683837         1.539488         1.311753
 C         1.361638         1.231936         1.333854
 C         1.142438        -0.189635         0.968759
 C         0.055570        -0.049001        -0.055860
 O         0.695870        -1.070646         2.038692
 H         2.566526        -0.767877        -1.561801
 H         3.582814        -1.962792        -0.707370
 H         1.964914        -2.224518        -0.585402
 H         4.533241         0.377630         0.732116
 H         3.003648         2.576994         1.348295
 H         0.641746         1.978555         1.667644
 H         0.296216         0.407148        -1.046038
 H        -0.234898        -1.059334        -0.375596
 H        -0.782652         0.474599         0.399660
 H         1.444119        -0.996689         2.595437
