19
Iteration:  2075
 C         2.832569        -1.739355        -0.559399
 C         2.479853        -0.614586         0.438713
 O         3.409282        -0.735910         1.678185
 C         3.526954         0.350150         0.896647
 C         2.708754         1.496494         1.460554
 C         1.480909         1.131506         1.625636
 C         1.076048        -0.130787         0.950154
 C         0.024598         0.106138        -0.258034
 O         0.377677        -0.901068         1.904879
 H         2.157715        -2.558556        -0.374757
 H         2.720667        -1.344847        -1.548376
 H         3.833188        -2.228704        -0.579802
 H         4.366696         0.638215         0.311962
 H         3.201636         2.341992         1.951226
 H         0.828693         1.727976         2.239402
 H         0.804522         0.153891        -0.983373
 H        -0.626498        -0.744837        -0.254503
 H        -0.562991         1.007543        -0.137139
 H         0.684838        -0.862972         2.889166
