19
Iteration:  4638charge 0 multiplicity 1
 C         2.803990        -1.821110        -0.500943
 C         2.447246        -0.709484         0.594806
 O         3.544878        -0.682036         1.529421
 C         3.379590         0.503423         0.551065
 C         2.642537         1.621105         1.287595
 C         1.395214         1.277909         1.689619
 C         1.008130        -0.125282         1.118646
 C         0.125976         0.031932        -0.083866
 O         0.464335        -1.084257         2.003481
 H         3.542950        -2.383344         0.144200
 H         1.868045        -2.369928        -0.854440
 H         3.206760        -1.370666        -1.462575
 H         4.186746         0.642855        -0.197201
 H         3.227563         2.507014         1.575393
 H         0.651146         1.896066         2.146309
 H         0.953425         0.267891        -0.804404
 H        -0.506210        -0.858718        -0.200405
 H        -0.588445         0.886588         0.219714
 H         1.235163        -1.167592         2.520278
