19
Iteration:  3830
 C         2.626624        -1.788288        -0.491034
 C         2.518691        -0.533211         0.449549
 O         3.434054        -0.698758         1.558506
 C         3.434240         0.538933         0.786360
 C         2.652755         1.570602         1.459779
 C         1.342594         1.321311         1.601319
 C         1.139996        -0.076091         0.968626
 C         0.004718        -0.192854        -0.105034
 O         0.729466        -1.018455         1.922853
 H         2.086499        -2.724491        -0.179050
 H         2.257706        -1.667806        -1.524556
 H         3.661472        -2.184652        -0.466517
 H         4.339985         0.656552         0.176259
 H         3.160917         2.455384         1.763608
 H         0.620831         1.788348         2.319805
 H         0.121776         0.073282        -1.181583
 H        -0.526022        -1.150386        -0.031560
 H        -0.838608         0.430764         0.215668
 H         1.433021        -1.143605         2.662290
