19
Iteration:  1946charge 0 multiplicity 1
 C         2.823908        -1.705768        -0.536114
 C         2.477974        -0.657123         0.532503
 O         3.329699        -0.920088         1.664788
 C         3.479589         0.357133         0.904998
 C         2.747451         1.533835         1.547659
 C         1.446690         1.306136         1.467672
 C         1.116184        -0.060865         0.903627
 C         0.025969         0.097995        -0.239065
 O         0.448951        -0.887103         1.952080
 H         2.554763        -2.790243        -0.426700
 H         2.463566        -1.450343        -1.553126
 H         3.965071        -1.631623        -0.613779
 H         4.333636         0.346077         0.263447
 H         3.304631         2.279557         2.055536
 H         0.592976         1.798093         1.940325
 H         0.317062         0.855321        -0.994554
 H        -0.023896        -0.882691        -0.757643
 H        -0.883369         0.448164         0.292695
 H         1.057985        -1.379383         2.449194
