19
Iteration:  2182charge 0 multiplicity 1
 C         3.004293        -1.524630        -0.654475
 C         2.476099        -0.681622         0.433365
 O         3.389853        -0.965390         1.676802
 C         3.496593         0.285201         1.007468
 C         2.732489         1.490467         1.560392
 C         1.453100         1.314497         1.310274
 C         0.983362        -0.092416         0.932205
 C        -0.097373        -0.052698        -0.070099
 O         0.437209        -0.802153         2.007407
 H         2.203788        -2.185404        -0.984432
 H         3.185023        -0.886329        -1.537540
 H         3.973559        -2.077500        -0.250377
 H         4.383299         0.450539         0.439129
 H         3.286925         2.395586         1.882916
 H         0.734643         2.115825         1.409938
 H         0.214015         0.432319        -1.017943
 H        -0.397707        -1.100619        -0.304928
 H        -1.040335         0.573205         0.285857
 H         1.195349        -1.174624         2.404423
