19
Iteration:  4369
 C         2.723818        -1.738388        -0.502068
 C         2.528481        -0.616196         0.491254
 O         3.501329        -0.588636         1.562389
 C         3.445759         0.508615         0.612689
 C         2.600565         1.641353         1.222300
 C         1.432155         1.134036         1.633875
 C         1.104003        -0.166478         1.134513
 C         0.008468        -0.061802        -0.054777
 O         0.545744        -1.097246         2.048221
 H         2.405151        -1.435979        -1.480262
 H         3.770155        -1.898228        -0.537841
 H         2.044188        -2.438147        -0.105227
 H         4.304798         0.544999        -0.010992
 H         3.049006         2.604161         1.424537
 H         0.708348         1.460052         2.385221
 H         0.269927         0.434086        -1.045202
 H        -0.171111        -1.096577        -0.360526
 H        -0.830437         0.574967         0.195682
 H         1.142776        -1.053809         2.807627
