19
Iteration:   685charge 0 multiplicity 1
 C         2.753206        -1.902346        -0.422575
 C         2.522020        -0.646952         0.551585
 O         3.435108        -0.891373         1.571454
 C         3.443561         0.432352         0.733663
 C         2.733246         1.445925         1.582789
 C         1.416553         1.288718         1.644747
 C         1.021435        -0.061270         0.915332
 C         0.227201         0.123428        -0.352756
 O         0.346826        -0.761582         1.964522
 H         2.248527        -2.692107         0.121368
 H         2.325153        -1.820223        -1.458004
 H         3.774600        -2.115950        -0.635403
 H         4.385209         0.409181         0.228563
 H         3.324465         2.276851         2.083059
 H         0.673628         1.894190         2.205091
 H         0.524096        -0.560137        -1.136348
 H        -0.855143        -0.112314        -0.221914
 H         0.260175         1.180809        -0.713563
 H         0.976065        -1.033812         2.614507
