19
Iteration:   666
 C         2.624331        -1.911207        -0.314960
 C         2.462436        -0.689850         0.419277
 O         3.491412        -0.851207         1.568446
 C         3.496740         0.439203         0.882214
 C         2.702618         1.547125         1.537696
 C         1.460168         1.166828         1.676288
 C         1.144613        -0.069425         0.881896
 C         0.187058         0.170436        -0.351562
 O         0.362901        -0.789948         1.878663
 H         2.137504        -2.776773         0.255594
 H         2.194118        -1.934299        -1.412601
 H         3.677393        -2.167678        -0.470465
 H         4.326467         0.799188         0.338081
 H         3.032761         2.426280         2.058789
 H         0.703629         1.572455         2.265687
 H         0.197324        -0.738670        -1.066370
 H        -0.901608         0.267939         0.027885
 H         0.486221         1.117316        -0.950381
 H         1.101860        -1.007865         2.521559
