19
Iteration:  2595charge 0 multiplicity 1
 C         2.633463        -1.648083        -0.452147
 C         2.548200        -0.696514         0.561382
 O         3.308010        -0.673724         1.830235
 C         3.506153         0.424706         0.827728
 C         2.793181         1.624580         1.227061
 C         1.566266         1.177795         1.592320
 C         1.056946        -0.188601         0.938764
 C         0.157641         0.153725        -0.201575
 O         0.378142        -1.150956         1.822576
 H         2.003170        -1.340031        -1.352130
 H         3.707068        -1.822853        -0.727899
 H         2.277447        -2.641915        -0.206007
 H         4.577659         0.534113         0.470526
 H         3.155890         2.487519         1.773741
 H         0.848583         1.673030         2.210330
 H         0.423707         1.080796        -0.692620
 H         0.196330        -0.700899        -0.902788
 H        -0.868094         0.318994         0.181663
 H         1.111952        -1.435356         2.375629
