19
Iteration:  1691charge 0 multiplicity 1
 C         2.574505        -1.744238        -0.450883
 C         2.507455        -0.724455         0.643621
 O         3.558931        -0.702616         1.690538
 C         3.477094         0.408845         0.766029
 C         2.753797         1.518604         1.438645
 C         1.509229         1.146213         1.737166
 C         1.074513        -0.081435         0.971249
 C         0.260161         0.090720        -0.294652
 O         0.210821        -0.902835         1.780442
 H         1.938492        -2.649129        -0.375766
 H         2.334950        -1.129175        -1.346163
 H         3.612710        -2.074840        -0.615149
 H         4.256701         0.643245         0.057915
 H         3.238602         2.397755         1.827690
 H         0.727845         1.577434         2.430731
 H         0.866280         0.631239        -1.013103
 H         0.360157        -0.896266        -0.789300
 H        -0.776543         0.378323        -0.277418
 H         0.799845        -1.424424         2.332269
