19
Iteration:  4285
 C         2.803330        -1.695448        -0.562112
 C         2.460702        -0.612904         0.457212
 O         3.386307        -0.671784         1.628122
 C         3.424070         0.481738         0.737737
 C         2.693457         1.566024         1.362869
 C         1.384573         1.295676         1.505373
 C         1.071883        -0.107157         0.946580
 C        -0.116200        -0.193116         0.011404
 O         0.714207        -1.033818         2.015243
 H         2.077288        -1.864593        -1.392546
 H         3.714529        -1.274417        -1.141263
 H         3.186717        -2.719071        -0.146866
 H         4.383501         0.660665         0.240657
 H         3.191713         2.406677         1.773159
 H         0.663583         1.921207         2.011552
 H         0.038341         0.173140        -1.018767
 H        -0.504770        -1.215052         0.037907
 H        -0.829303         0.344427         0.631967
 H         1.369931        -0.825682         2.695350
