19
Iteration:  3768charge 0 multiplicity 1
 C         2.763270        -1.689403        -0.692099
 C         2.508719        -0.708929         0.572156
 O         3.446430        -0.698450         1.633268
 C         3.328204         0.529000         0.686500
 C         2.615906         1.654184         1.222629
 C         1.434107         1.171492         1.572616
 C         1.156212        -0.158884         1.120380
 C         0.086988        -0.041911        -0.057149
 O         0.552054        -1.040078         2.092421
 H         1.761423        -2.305621        -0.914774
 H         2.764119        -1.018707        -1.591205
 H         3.679136        -2.243010        -0.495177
 H         4.182640         0.657538         0.078187
 H         3.049014         2.616146         1.472993
 H         0.671429         1.712886         2.161254
 H         0.309103         0.669421        -0.839399
 H         0.127332        -1.118981        -0.413866
 H        -0.919740         0.038421         0.496240
 H         1.241933        -1.125248         2.835631
