19
Iteration:  4242charge 0 multiplicity 1
 C         2.785690        -1.597272        -0.675071
 C         2.536769        -0.659407         0.545068
 O         3.382825        -0.809411         1.649724
 C         3.467854         0.426873         0.840773
 C         2.580204         1.650805         1.205795
 C         1.291108         1.283344         1.493082
 C         1.147248        -0.141708         0.980101
 C        -0.109756        -0.168854         0.013573
 O         0.778062        -0.971815         2.073196
 H         2.247574        -1.162609        -1.491719
 H         3.853278        -1.806858        -0.725858
 H         2.310648        -2.549743        -0.343305
 H         4.461192         0.559324         0.423617
 H         2.962883         2.645271         1.366707
 H         0.446478         1.878126         1.849259
 H         0.027886         0.622849        -0.725760
 H        -0.331608        -1.124518        -0.449514
 H        -0.972870         0.038449         0.621273
 H         1.598216        -0.995263         2.567850
