19
Iteration:   199
 C         2.895642        -1.732295        -0.650954
 C         2.592781        -0.704222         0.443243
 O         3.167251        -0.980261         1.665565
 C         3.480143         0.331641         0.946717
 C         2.743349         1.536535         1.499410
 C         1.415685         1.221794         1.427323
 C         1.092751        -0.075344         0.774408
 C        -0.129150         0.062252        -0.132487
 O         0.646066        -0.686774         2.136344
 H         2.056768        -2.394654        -0.695592
 H         3.215393        -1.272917        -1.582221
 H         3.722176        -2.373798        -0.303708
 H         4.557690         0.373855         0.584995
 H         3.095815         2.488948         1.895488
 H         0.520689         1.779389         1.620785
 H        -0.432572        -0.815898        -0.694852
 H        -0.950075         0.373823         0.515687
 H         0.026105         0.868700        -0.821577
 H         1.636664        -0.906834         2.459642
