19
Iteration:  4059charge 0 multiplicity 1
 C         2.692432        -1.766636        -0.499193
 C         2.559895        -0.707324         0.508741
 O         3.565921        -0.678246         1.528398
 C         3.335532         0.521833         0.726415
 C         2.576739         1.600799         1.426458
 C         1.326576         1.283627         1.597095
 C         1.131239        -0.159752         0.933165
 C         0.064136        -0.112105        -0.158443
 O         0.620220        -0.927798         2.051531
 H         1.829904        -2.475557        -0.174123
 H         2.527585        -1.623629        -1.516925
 H         3.504598        -2.486262        -0.430400
 H         4.098778         0.794756         0.054397
 H         3.093112         2.394274         2.001634
 H         0.536051         1.639340         2.225231
 H         0.057920         0.891832        -0.628345
 H         0.106000        -1.033661        -0.743930
 H        -0.860780        -0.187761         0.476249
 H         1.459394        -1.000145         2.538502
