19
Iteration:  1005charge 0 multiplicity 1
 C         2.872121        -1.708669        -0.679241
 C         2.508895        -0.722258         0.479857
 O         3.367458        -0.811764         1.763007
 C         3.470795         0.356944         0.838837
 C         2.765969         1.530744         1.510167
 C         1.433662         1.311564         1.515073
 C         1.061943        -0.130524         0.984281
 C         0.039324         0.144015        -0.163377
 O         0.366480        -0.977803         1.923031
 H         2.285995        -2.632982        -0.726729
 H         2.894804        -1.272432        -1.654725
 H         3.974733        -1.988103        -0.438600
 H         4.414513         0.477637         0.317106
 H         3.337537         2.410807         1.834469
 H         0.771818         1.914134         2.098524
 H         0.537459        -0.113169        -1.165475
 H        -0.900485        -0.440380         0.078931
 H        -0.364508         1.163998        -0.224468
 H         1.023862        -1.139502         2.578561
