19
Iteration:  4200
 C         2.570000        -1.626163        -0.586557
 C         2.538841        -0.578263         0.448829
 O         3.475576        -0.678828         1.522484
 C         3.486783         0.542008         0.760639
 C         2.721467         1.651104         1.477334
 C         1.387063         1.301744         1.529974
 C         1.075849        -0.203688         1.011138
 C         0.047744        -0.431269        -0.155830
 O         0.598656        -0.930815         2.171038
 H         2.567204        -1.073664        -1.529689
 H         3.365239        -2.267372        -0.467165
 H         1.682606        -2.164756        -0.707544
 H         4.346915         0.730421         0.044400
 H         3.219735         2.551434         1.794855
 H         0.696394         2.002438         2.034910
 H         0.202919         0.311964        -0.887315
 H         0.019861        -1.474295        -0.411912
 H        -1.027509        -0.268379        -0.015515
 H         1.373067        -1.318268         2.724614
