19
Iteration:  3536
 C         2.474544        -1.692108        -0.507506
 C         2.524753        -0.631737         0.559240
 O         3.445112        -0.768548         1.653985
 C         3.443445         0.542281         0.799269
 C         2.671000         1.638763         1.421339
 C         1.383285         1.277278         1.539481
 C         1.142721        -0.113924         0.967674
 C         0.129656        -0.062663        -0.154342
 O         0.684320        -1.116872         1.924840
 H         1.816716        -1.790804        -1.352064
 H         3.418064        -1.497780        -1.010707
 H         2.613162        -2.761105        -0.214104
 H         4.216619         0.727108         0.044876
 H         3.084785         2.543566         1.811340
 H         0.573572         1.891161         1.981167
 H         0.442251         0.363341        -1.160392
 H        -0.330175        -1.013140        -0.411921
 H        -0.683705         0.428384         0.313692
 H         1.114147        -1.087335         2.734565
