19
Iteration:  3101
 C         2.649482        -1.562193        -0.510575
 C         2.539204        -0.644601         0.558216
 O         3.346571        -0.713947         1.744206
 C         3.543286         0.484123         0.838768
 C         2.709439         1.615275         1.211858
 C         1.462002         1.252439         1.480661
 C         1.113708        -0.220322         1.002509
 C         0.022459        -0.010520        -0.084974
 O         0.548265        -1.174473         1.928051
 H         2.264941        -0.946609        -1.274063
 H         3.728113        -1.767139        -0.789542
 H         2.062721        -2.513332        -0.367016
 H         4.437894         0.448696         0.239232
 H         3.210150         2.551210         1.357522
 H         0.725727         1.956900         1.931796
 H         0.390794         0.694170        -0.863448
 H        -0.440390        -0.963980        -0.487713
 H        -0.769546         0.587211         0.503565
 H         1.159389        -1.675503         2.536523
