19
Iteration:  2753
 C         2.728345        -1.676003        -0.731192
 C         2.534922        -0.619439         0.440197
 O         3.251188        -0.844517         1.784004
 C         3.518273         0.423457         0.935798
 C         2.766054         1.566526         1.606013
 C         1.449345         1.267138         1.404997
 C         1.089148        -0.062418         0.835529
 C        -0.032300        -0.141482        -0.274034
 O         0.617256        -0.878270         2.117654
 H         3.242860        -2.502204        -0.291749
 H         1.698412        -1.967012        -0.992101
 H         3.286785        -1.158194        -1.591676
 H         4.562978         0.552510         0.573949
 H         3.012370         2.514338         2.057809
 H         0.520521         1.756217         1.693611
 H         0.088804         0.776149        -0.873425
 H         0.078483        -0.988401        -0.969590
 H        -0.965212        -0.222622         0.338405
 H         1.493449        -1.154382         2.526737
