19
Iteration:  3728charge 0 multiplicity 1
 C         2.815269        -1.700382        -0.514889
 C         2.514245        -0.598264         0.473715
 O         3.453426        -0.737929         1.569284
 C         3.477627         0.503278         0.709317
 C         2.686735         1.602079         1.360135
 C         1.424132         1.218230         1.543687
 C         1.047141        -0.059258         0.966199
 C        -0.150835        -0.084106         0.003070
 O         0.608610        -1.084127         2.040893
 H         2.613807        -2.622479        -0.027935
 H         2.359611        -1.543213        -1.534683
 H         3.855371        -1.578593        -0.837151
 H         4.308259         0.702015        -0.004153
 H         3.184697         2.568378         1.676500
 H         0.585381         1.634429         2.114691
 H        -0.067049         0.453384        -0.917518
 H        -0.395915        -1.090420        -0.295133
 H        -1.018778         0.394884         0.468877
 H         1.374681        -1.211431         2.595311
