19
Iteration:  2546charge 0 multiplicity 1
 C         2.788277        -1.751643        -0.484518
 C         2.570067        -0.611496         0.488341
 O         3.384717        -0.918731         1.658896
 C         3.464651         0.471552         0.874031
 C         2.715942         1.557693         1.547942
 C         1.425551         1.249319         1.514518
 C         1.080864        -0.116882         0.908418
 C         0.041786         0.093541        -0.262379
 O         0.442635        -0.910809         1.913096
 H         1.972712        -2.204925        -1.052561
 H         3.593941        -1.694446        -1.209316
 H         3.176880        -2.560518         0.177678
 H         4.351797         0.604332         0.271315
 H         3.017650         2.470717         2.107768
 H         0.549176         1.577455         2.090875
 H         0.678613         0.410135        -1.166817
 H        -0.646970        -0.675590        -0.637079
 H        -0.560244         0.944404         0.095511
 H         1.140745        -1.171005         2.629894
