19
Iteration:  4306charge 0 multiplicity 1
 C         2.668370        -1.669662        -0.545638
 C         2.571757        -0.629845         0.488911
 O         3.496731        -0.717355         1.571802
 C         3.460393         0.566229         0.728366
 C         2.642219         1.659918         1.411414
 C         1.401199         1.196250         1.580938
 C         1.089459        -0.151940         0.975181
 C        -0.070508        -0.248169        -0.116531
 O         0.640075        -0.926277         2.058289
 H         1.703177        -1.880408        -1.029375
 H         3.336196        -1.721331        -1.450350
 H         2.876595        -2.675958         0.004274
 H         4.337803         0.737908         0.104887
 H         3.030335         2.588243         1.751834
 H         0.567287         1.574319         2.155587
 H         0.373413         0.192789        -1.062347
 H        -0.365600        -1.296491        -0.318646
 H        -0.983769         0.245673         0.261972
 H         1.350550        -0.997748         2.726400
