19
Iteration:  2281charge 0 multiplicity 1
 C         2.660638        -1.859386        -0.405414
 C         2.517640        -0.664030         0.499386
 O         3.404388        -0.733707         1.737256
 C         3.458050         0.444889         0.823858
 C         2.704960         1.513674         1.475082
 C         1.413665         1.177090         1.563744
 C         1.135286        -0.067799         0.904938
 C         0.191805         0.227417        -0.159229
 O         0.451137        -1.034622         1.732177
 H         2.333486        -2.734100         0.179108
 H         1.973908        -1.674485        -1.255263
 H         3.665650        -2.081659        -0.851456
 H         4.469935         0.476870         0.437238
 H         3.222578         2.468180         1.551610
 H         0.651957         1.818185         2.045212
 H         0.353125         1.216111        -0.527814
 H         0.161061        -0.663527        -0.855964
 H        -0.825268         0.400218         0.280413
 H         0.881373        -1.064203         2.549730
