19
Iteration:  3110
 C         2.682239        -1.623748        -0.576551
 C         2.537007        -0.635732         0.612141
 O         3.321960        -0.603926         1.767196
 C         3.598920         0.422157         0.749250
 C         2.766300         1.629575         1.257448
 C         1.478058         1.237548         1.538715
 C         1.071727        -0.238464         1.006084
 C        -0.037624         0.020718        -0.052934
 O         0.534566        -1.204244         1.901603
 H         2.362824        -1.147776        -1.453877
 H         3.741355        -2.041107        -0.628679
 H         1.979239        -2.493075        -0.481148
 H         4.639571         0.584113         0.374681
 H         2.979202         2.673169         1.434900
 H         0.696524         1.958677         1.898981
 H         0.364092         0.552125        -0.937772
 H        -0.500105        -0.889434        -0.551203
 H        -0.931635         0.644415         0.352483
 H         1.367081        -1.526157         2.384267
