19
Iteration:  2250
 C         2.514451        -1.665869        -0.464273
 C         2.499367        -0.594883         0.587953
 O         3.394946        -0.869736         1.714344
 C         3.456151         0.489560         0.884378
 C         2.780965         1.647207         1.464819
 C         1.439099         1.317938         1.539483
 C         1.040912        -0.093384         0.957902
 C         0.221297         0.024326        -0.329523
 O         0.516099        -1.123580         1.871943
 H         1.597562        -2.330434        -0.309437
 H         2.267187        -1.285736        -1.490517
 H         3.356684        -2.338016        -0.587713
 H         4.459425         0.465002         0.385896
 H         3.290943         2.531086         1.827027
 H         0.731059         1.914920         2.172081
 H         1.095868         0.457190        -0.922724
 H         0.104998        -1.014334        -0.739142
 H        -0.664297         0.696565        -0.263582
 H         1.313818        -1.570224         2.360408
