19
Iteration:  1886charge 0 multiplicity 1
 C         2.646675        -1.374020        -0.710384
 C         2.449689        -0.559711         0.574902
 O         3.187954        -1.040056         1.817850
 C         3.504312         0.276034         1.028595
 C         2.801529         1.474264         1.521967
 C         1.497075         1.393636         1.307185
 C         1.083585        -0.074141         0.918868
 C         0.109720        -0.248433        -0.183561
 O         0.590111        -0.832316         1.946538
 H         1.796295        -2.068588        -0.995693
 H         2.956513        -0.592434        -1.483644
 H         3.630700        -1.857204        -0.567535
 H         4.547847         0.302371         0.638166
 H         3.400500         2.385641         1.723496
 H         0.801548         2.199004         1.470489
 H         0.535705        -0.130672        -1.199712
 H        -0.367491        -1.263694        -0.112971
 H        -0.712020         0.539511        -0.262567
 H         1.402169        -1.080410         2.577842
