19
Iteration:  2818charge 0 multiplicity 1
 C         2.672716        -1.656380        -0.540111
 C         2.566548        -0.645235         0.577652
 O         3.412353        -0.712455         1.686552
 C         3.524865         0.458784         0.813045
 C         2.701186         1.608882         1.396148
 C         1.422169         1.150413         1.470699
 C         1.118353        -0.168947         0.949223
 C         0.056298         0.020300        -0.145613
 O         0.446219        -1.035572         1.957448
 H         2.009954        -2.507472        -0.621139
 H         2.516109        -1.138533        -1.534025
 H         3.724360        -2.113446        -0.646759
 H         4.590022         0.597062         0.511807
 H         3.153191         2.436961         1.944775
 H         0.600511         1.699679         1.868445
 H         0.497423         0.723316        -0.868077
 H        -0.325108        -0.907846        -0.564617
 H        -0.868740         0.508481         0.273052
 H         1.178947        -1.410778         2.579048
