19
Iteration:  4293
 C         2.759908        -1.732936        -0.579148
 C         2.528317        -0.576404         0.487600
 O         3.432103        -0.705026         1.623388
 C         3.399764         0.504379         0.707938
 C         2.661362         1.587461         1.391769
 C         1.400456         1.248034         1.559120
 C         1.119415        -0.123779         0.918915
 C        -0.129010        -0.197335        -0.034613
 O         0.690375        -0.996634         2.023678
 H         1.827438        -1.783418        -1.124440
 H         3.636535        -1.245828        -1.056390
 H         3.150726        -2.649463        -0.072272
 H         4.300045         0.664663         0.232675
 H         3.157246         2.504071         1.673675
 H         0.682715         1.850716         2.110135
 H        -0.009652         0.185292        -1.101967
 H        -0.345347        -1.286768         0.046377
 H        -1.053380         0.301164         0.343048
 H         1.377341        -0.693115         2.670728
