19
Iteration:   547
 C         2.722549        -1.653361        -0.571698
 C         2.578158        -0.620161         0.480537
 O         3.362004        -0.984768         1.620582
 C         3.621250         0.340917         0.921689
 C         2.809456         1.406843         1.661755
 C         1.407228         1.369511         1.485124
 C         1.107319         0.035896         0.847598
 C        -0.040266        -0.205488        -0.264251
 O         0.383444        -0.650773         1.968124
 H         1.821869        -2.303701        -0.378614
 H         2.649453        -1.363426        -1.686003
 H         3.600338        -2.243958        -0.452963
 H         4.565120         0.476077         0.440479
 H         3.326931         2.167756         2.347975
 H         0.829387         2.156359         1.993928
 H         0.120610        -1.254955        -0.523363
 H        -1.098984        -0.016104         0.015906
 H         0.253425         0.475017        -1.122321
 H         1.093534        -0.875081         2.712000
