19
Iteration:  4267
 C         2.895955        -1.653410        -0.641804
 C         2.506836        -0.561297         0.427273
 O         3.278477        -0.715766         1.616549
 C         3.443382         0.442870         0.787596
 C         2.681957         1.660858         1.336818
 C         1.418345         1.304459         1.340254
 C         1.105647        -0.218317         1.026082
 C        -0.169431        -0.124219         0.107827
 O         0.700615        -1.082286         2.101671
 H         2.058215        -1.607491        -1.320540
 H         3.894456        -1.497845        -0.875636
 H         2.924429        -2.518907        -0.065161
 H         4.443627         0.447137         0.232478
 H         3.116293         2.614394         1.670688
 H         0.609614         1.895253         1.769605
 H         0.291719         0.389487        -0.705640
 H        -0.493441        -1.144639        -0.169431
 H        -1.119005         0.373523         0.397065
 H         1.575977        -1.259970         2.463430
