19
Iteration:  3433
 C         2.453501        -1.706399        -0.502088
 C         2.493865        -0.534952         0.487824
 O         3.540708        -0.761683         1.617228
 C         3.465419         0.519094         0.849262
 C         2.637298         1.670357         1.405862
 C         1.395828         1.224698         1.617423
 C         1.147591        -0.181018         0.985685
 C         0.133334        -0.111454        -0.213058
 O         0.655291        -1.094255         1.938943
 H         1.706937        -1.506069        -1.312606
 H         3.451244        -2.052282        -0.834199
 H         2.072293        -2.532429         0.040030
 H         4.341921         0.877395         0.235904
 H         3.031561         2.726785         1.482346
 H         0.611549         1.889979         1.970001
 H         0.364020         0.608729        -0.972036
 H        -0.151702        -1.035019        -0.760861
 H        -0.778128         0.329834         0.285915
 H         1.066337        -1.047227         2.892961
