19
Iteration:    29charge 0 multiplicity 1
 C         2.456085        -1.740855        -0.395477
 C         2.574141        -0.561956         0.639541
 O         3.485478        -0.812809         1.720439
 C         3.601130         0.353888         0.941874
 C         2.793196         1.649849         1.384003
 C         1.436518         1.445971         1.385891
 C         1.081022        -0.066076         1.042967
 C         0.035807         0.032568        -0.152435
 O         0.514696        -1.215998         1.659980
 H         1.779083        -2.448859         0.153464
 H         1.687412        -1.485531        -1.204708
 H         3.407864        -2.197008        -0.648078
 H         4.492376         0.541707         0.257426
 H         3.267333         2.614803         1.668756
 H         0.764578         2.226366         1.838272
 H        -0.200369        -0.972565        -0.537117
 H        -0.755498         0.757867         0.132225
 H         0.492843         0.727561        -0.921768
 H         0.897112        -1.537829         2.511407
