19
Iteration:  4913charge 0 multiplicity 1
 C         2.553220        -1.767012        -0.454013
 C         2.514968        -0.657053         0.579915
 O         3.387823        -0.569672         1.760701
 C         3.445175         0.446880         0.632082
 C         2.666081         1.545844         1.232517
 C         1.433100         1.210307         1.564640
 C         1.186597        -0.132810         1.029799
 C         0.097601         0.066560        -0.114133
 O         0.611093        -1.120319         1.869136
 H         3.595492        -1.900474        -0.698289
 H         2.358799        -2.652844         0.027475
 H         1.926486        -1.572646        -1.317868
 H         4.354961         0.518312         0.058996
 H         3.128543         2.542404         1.489634
 H         0.825116         1.627867         2.370430
 H         0.564141         0.604362        -0.921022
 H        -0.153581        -0.941691        -0.524121
 H        -0.778563         0.442974         0.477025
 H         0.998373        -1.045473         2.803678
