19
Iteration:  3383
 C         2.795619        -1.672435        -0.542651
 C         2.460012        -0.554937         0.385144
 O         3.355802        -0.759676         1.600238
 C         3.463215         0.443552         0.761104
 C         2.698527         1.637634         1.395194
 C         1.433987         1.231931         1.649086
 C         1.065402        -0.125431         0.949174
 C        -0.103939        -0.028461        -0.065286
 O         0.696679        -1.099282         2.037920
 H         3.460979        -1.356960        -1.376319
 H         3.314930        -2.419858         0.130048
 H         1.834657        -2.228060        -0.948697
 H         4.387980         0.558692         0.239369
 H         3.232920         2.630038         1.499480
 H         0.635310         1.946415         1.897868
 H         0.124520         0.288936        -1.106492
 H        -0.380313        -1.087812        -0.226576
 H        -1.047449         0.499680         0.162792
 H         1.405974        -1.137442         2.636032
