19
Iteration:  4750
 C         2.858585        -1.682441        -0.652153
 C         2.521340        -0.702487         0.490605
 O         3.302266        -0.790444         1.745795
 C         3.447836         0.434824         0.732888
 C         2.720676         1.634007         1.353755
 C         1.432726         1.212646         1.468569
 C         1.054887        -0.208103         0.937603
 C        -0.080928        -0.093631        -0.087170
 O         0.632462        -0.815369         2.117041
 H         3.843595        -1.496185        -1.187764
 H         3.017767        -2.764241        -0.363300
 H         2.036563        -1.638477        -1.450446
 H         4.368326         0.498694         0.181125
 H         3.238897         2.358286         1.931090
 H         0.614760         1.740965         1.992737
 H        -0.030829         0.658680        -0.835514
 H        -0.458150        -0.881322        -0.772251
 H        -0.948201         0.059905         0.547926
 H         1.460273        -0.844784         2.725364
