19
Iteration:   793charge 0 multiplicity 1
 C         2.758278        -1.733275        -0.556635
 C         2.553358        -0.603865         0.450647
 O         3.270859        -0.968472         1.661450
 C         3.548301         0.340135         0.961051
 C         2.824674         1.506273         1.564156
 C         1.457837         1.299050         1.548178
 C         1.087623         0.000319         0.827988
 C        -0.079669        -0.132194        -0.272087
 O         0.500937        -0.652718         1.964961
 H         1.845806        -2.248777        -0.801483
 H         3.121867        -1.331855        -1.512432
 H         3.459401        -2.383415        -0.142380
 H         4.469271         0.343834         0.419753
 H         3.314027         2.222794         2.194740
 H         0.726502         1.749314         2.153285
 H        -0.331822        -1.153583        -0.359946
 H        -0.924883         0.477435        -0.078255
 H         0.352439         0.182120        -1.188078
 H         1.369694        -0.894940         2.509628
