19
Iteration:  4029charge 0 multiplicity 1
 C         2.690243        -1.616406        -0.553253
 C         2.485517        -0.618367         0.528235
 O         3.443053        -0.673236         1.562763
 C         3.484572         0.482208         0.746576
 C         2.714988         1.644616         1.351300
 C         1.416747         1.219516         1.543164
 C         1.050180        -0.146956         1.001485
 C         0.110395        -0.146502        -0.102194
 O         0.516536        -1.084917         2.115088
 H         2.468969        -2.542223         0.099348
 H         2.011664        -1.664126        -1.433958
 H         3.669678        -1.663328        -1.000936
 H         4.343539         0.669099         0.057799
 H         2.990916         2.676421         1.616362
 H         0.561032         1.884186         1.755906
 H         0.348309         0.289539        -1.063906
 H        -0.062830        -1.164544        -0.485121
 H        -0.912271         0.167414         0.229554
 H         1.358900        -1.203561         2.698400
