19
Iteration:     8charge 0 multiplicity 1
 C         2.590376        -1.669792        -0.489520
 C         2.500856        -0.642665         0.544467
 O         3.364648        -0.851100         1.689538
 C         3.487929         0.356484         0.902218
 C         2.792800         1.596709         1.460433
 C         1.461407         1.305379         1.465983
 C         1.098536        -0.072920         0.908426
 C         0.086489        -0.013376        -0.197089
 O         0.520642        -1.008694         1.902213
 H         1.998943        -2.571833        -0.188883
 H         2.142354        -1.279631        -1.472451
 H         3.651714        -1.856276        -0.443893
 H         4.490753         0.667205         0.467108
 H         3.389519         2.511244         1.639994
 H         0.743332         2.135340         1.640474
 H        -0.017108        -1.084223        -0.397287
 H        -0.787176         0.510179         0.220833
 H         0.379068         0.612590        -1.076140
 H         1.182411        -1.079345         2.501822
