19
Iteration:  1594
 C         2.746578        -1.629869        -0.638745
 C         2.537736        -0.555967         0.413856
 O         3.276416        -1.008555         1.643633
 C         3.502734         0.260702         1.065503
 C         2.804295         1.458201         1.737464
 C         1.468694         1.460395         1.451002
 C         1.069212        -0.020385         0.768978
 C         0.018191        -0.174004        -0.206719
 O         0.507559        -0.727174         1.922412
 H         2.209631        -2.548028        -0.373383
 H         2.503786        -1.359334        -1.681141
 H         3.769037        -1.950581        -0.611741
 H         4.456996         0.334085         0.549854
 H         3.478021         2.184561         2.270005
 H         0.552207         2.089062         1.789536
 H         0.263747         0.041238        -1.207016
 H        -0.210403        -1.251049        -0.240256
 H        -0.826811         0.318520         0.192824
 H         1.048065        -0.538671         2.653574
