19
Iteration:   678
 C         2.700400        -1.917068        -0.398598
 C         2.550146        -0.626081         0.540513
 O         3.468590        -0.917816         1.534980
 C         3.453116         0.433063         0.773419
 C         2.700322         1.497213         1.568017
 C         1.381156         1.185212         1.704035
 C         1.061443        -0.031270         0.897326
 C         0.189242         0.144330        -0.377125
 O         0.380441        -0.722450         1.936847
 H         2.252545        -2.716152         0.293192
 H         2.252117        -2.006831        -1.457714
 H         3.806585        -2.057075        -0.327586
 H         4.437251         0.497184         0.350462
 H         3.322161         2.268877         1.877304
 H         0.593173         1.604708         2.228863
 H         0.501517        -0.650445        -1.152453
 H        -0.918535         0.047783        -0.116592
 H         0.357912         1.182513        -0.827852
 H         0.936926        -1.011525         2.584974
