19
Iteration:  3535charge 0 multiplicity 1
 C         2.487404        -1.700311        -0.513745
 C         2.516446        -0.633586         0.561913
 O         3.449672        -0.761269         1.643521
 C         3.445049         0.533440         0.803295
 C         2.670975         1.645583         1.426407
 C         1.383485         1.271557         1.529740
 C         1.139451        -0.114664         0.969041
 C         0.128387        -0.057234        -0.148693
 O         0.675930        -1.118103         1.923629
 H         1.821545        -1.782269        -1.299054
 H         3.443447        -1.447245        -0.993565
 H         2.648369        -2.766464        -0.222508
 H         4.191389         0.712550         0.052181
 H         3.103559         2.534408         1.805701
 H         0.590333         1.921966         1.959641
 H         0.432964         0.349267        -1.141178
 H        -0.339352        -1.006801        -0.386017
 H        -0.667523         0.464865         0.338307
 H         1.080114        -1.116720         2.774866
