19
Iteration:  2426charge 0 multiplicity 1
 C         2.964521        -1.665131        -0.573525
 C         2.532121        -0.583907         0.342363
 O         3.208279        -0.890820         1.701369
 C         3.532193         0.327780         1.013786
 C         2.767066         1.473711         1.501852
 C         1.416157         1.333374         1.425457
 C         1.037944        -0.029322         0.925282
 C        -0.083232         0.019301        -0.168727
 O         0.524411        -0.914469         1.947984
 H         2.046981        -2.214003        -1.016050
 H         3.557615        -1.369193        -1.448300
 H         3.483034        -2.392112         0.005692
 H         4.531700         0.385662         0.606116
 H         3.261552         2.397637         1.842545
 H         0.714658         1.842873         2.015027
 H         0.211900         0.834856        -0.863888
 H        -0.211515        -0.958673        -0.628991
 H        -0.969883         0.168900         0.429174
 H         1.201941        -1.186363         2.566282
