19
Iteration:  1182
 C         2.420474        -1.800592        -0.476812
 C         2.534610        -0.650662         0.546064
 O         3.224944        -0.726700         1.743885
 C         3.485578         0.427190         0.902170
 C         2.757749         1.615223         1.491114
 C         1.484602         1.268586         1.580369
 C         1.169465        -0.097527         0.919543
 C         0.161347         0.142181        -0.278977
 O         0.698190        -1.152392         1.762693
 H         1.728311        -2.615867        -0.090580
 H         2.044938        -1.456480        -1.523152
 H         3.358739        -2.240200        -0.708544
 H         4.487548         0.535177         0.430092
 H         3.253909         2.483638         1.833235
 H         0.812465         1.833577         2.242092
 H         0.632761         0.913216        -0.969015
 H        -0.170356        -0.766211        -0.966488
 H        -0.724564         0.680128         0.285567
 H         1.203774        -1.026607         2.655134
