19
Iteration:  1478charge 0 multiplicity 1
 C         2.599147        -1.879855        -0.401856
 C         2.585063        -0.631540         0.456293
 O         3.316626        -0.824894         1.744504
 C         3.476373         0.473206         0.852769
 C         2.758421         1.440677         1.625099
 C         1.426700         1.241357         1.557767
 C         1.105005        -0.042336         0.794358
 C         0.006029         0.231059        -0.271665
 O         0.613361        -0.939558         1.783645
 H         1.796649        -2.520719         0.064939
 H         2.480759        -1.861287        -1.475141
 H         3.581008        -2.560132        -0.323678
 H         4.388023         0.755116         0.384124
 H         3.384275         2.201249         2.148473
 H         0.715485         1.779246         2.265003
 H         0.499383         0.681194        -1.157661
 H        -0.270263        -0.756481        -0.681439
 H        -0.862861         0.811050         0.243288
 H         1.486538        -1.152645         2.220573
