19
Iteration:   779
 C         2.757557        -1.709630        -0.577336
 C         2.446635        -0.651624         0.501409
 O         3.192440        -0.883605         1.711989
 C         3.501159         0.296638         0.919792
 C         2.813435         1.431521         1.597831
 C         1.497775         1.393785         1.355654
 C         1.036623        -0.002395         0.845815
 C         0.007899        -0.037526        -0.216691
 O         0.628393        -0.815881         1.957433
 H         1.827068        -2.273536        -0.757071
 H         3.222670        -1.308105        -1.449794
 H         3.532009        -2.442992        -0.114697
 H         4.561640         0.451607         0.663697
 H         3.305881         2.159477         2.273244
 H         0.832554         2.153179         1.846474
 H        -0.165762        -1.054837        -0.539717
 H        -0.935705         0.207751         0.270410
 H         0.135446         0.647489        -1.042023
 H         1.372466        -0.862484         2.515365
