19
Iteration:    80
 C         2.754930        -1.942133        -0.384182
 C         2.435103        -0.688648         0.482722
 O         3.388276        -0.752724         1.587220
 C         3.377367         0.449354         0.663740
 C         2.665811         1.583686         1.370335
 C         1.449627         1.192580         1.681069
 C         1.046725        -0.081165         0.993545
 C         0.297361         0.266865        -0.240018
 O         0.377304        -1.007921         1.962042
 H         2.368337        -2.835731         0.115221
 H         2.549548        -1.785124        -1.434728
 H         3.888689        -2.071951        -0.354276
 H         4.400382         0.660741         0.245341
 H         3.403533         2.290228         1.833908
 H         0.885514         1.661906         2.529346
 H         0.032987        -0.613636        -0.873758
 H        -0.628431         0.864915        -0.012165
 H         1.011950         0.913253        -0.745192
 H         1.059843        -1.148453         2.592473
