19
Iteration:  1519charge 0 multiplicity 1
 C         2.764676        -1.569582        -0.604352
 C         2.545653        -0.649982         0.539027
 O         3.196911        -0.944994         1.783569
 C         3.501453         0.275898         0.952908
 C         2.858522         1.548699         1.385354
 C         1.523652         1.333704         1.456448
 C         1.108980        -0.032010         0.958811
 C         0.057498         0.044385        -0.188121
 O         0.425073        -0.977468         1.890745
 H         1.970907        -2.299827        -0.576156
 H         2.646567        -1.132222        -1.564341
 H         3.793551        -2.073050        -0.600776
 H         4.529505         0.230577         0.705074
 H         3.282934         2.579805         1.533205
 H         0.767290         2.095095         1.851698
 H         0.363402         0.700698        -0.979928
 H        -0.157584        -0.965439        -0.573928
 H        -0.848213         0.528964         0.213779
 H         0.929194        -1.192461         2.702549
