19
Iteration:  2342
 C         2.740761        -1.770097        -0.489445
 C         2.479651        -0.696829         0.578176
 O         3.402978        -0.833777         1.648128
 C         3.393188         0.390375         0.841136
 C         2.748061         1.570526         1.465539
 C         1.409650         1.298606         1.578862
 C         1.130994        -0.082470         0.980727
 C         0.258117         0.121113        -0.207991
 O         0.343361        -0.983307         1.819165
 H         2.815872        -2.752976        -0.049199
 H         2.006460        -1.793665        -1.282261
 H         3.736364        -1.498824        -0.975569
 H         4.362212         0.510859         0.407069
 H         3.254370         2.437757         1.947471
 H         0.609424         1.905224         1.983413
 H         0.699953         0.710885        -1.062133
 H        -0.202912        -0.767516        -0.647963
 H        -0.556626         0.724847         0.240669
 H         0.961860        -1.248539         2.493388
