19
Iteration:  4448charge 0 multiplicity 1
 C         2.521433        -1.771981        -0.638469
 C         2.522617        -0.671937         0.436593
 O         3.384985        -0.646498         1.638781
 C         3.436782         0.591024         0.750418
 C         2.668417         1.684413         1.351120
 C         1.401696         1.235085         1.460994
 C         1.095934        -0.130205         0.993454
 C         0.073618        -0.192125        -0.003790
 O         0.769609        -1.037828         2.135343
 H         2.827459        -1.310785        -1.551579
 H         3.207492        -2.533074        -0.344638
 H         1.553452        -2.277404        -0.705306
 H         4.355365         0.629119         0.088262
 H         3.056795         2.565358         1.840476
 H         0.687195         1.739591         2.083561
 H         0.225528         0.533679        -0.782582
 H        -0.107038        -1.011872        -0.637641
 H        -0.928507        -0.194219         0.293765
 H         1.571054        -0.983555         2.627030
