19
Iteration:  2910
 C         2.722389        -1.828148        -0.464730
 C         2.597164        -0.642363         0.498353
 O         3.587850        -0.726316         1.538255
 C         3.431309         0.570243         0.776893
 C         2.667414         1.563367         1.615153
 C         1.366794         1.267417         1.582862
 C         1.106539        -0.092071         0.899093
 C        -0.036604        -0.059300        -0.219793
 O         0.489631        -0.976293         1.929134
 H         2.023576        -1.593069        -1.347008
 H         3.699780        -2.082873        -0.814762
 H         2.281465        -2.605286         0.080858
 H         4.302646         0.704584         0.152603
 H         3.279084         2.283731         2.126478
 H         0.576017         1.317762         2.376597
 H         0.138494         0.630609        -1.070054
 H        -0.396719        -1.037762        -0.606091
 H        -0.986483         0.293218         0.162556
 H         1.152156        -0.879387         2.697279
