19
Iteration:  1047
 C         2.665082        -1.607557        -0.526382
 C         2.511903        -0.530846         0.505947
 O         3.197048        -0.950605         1.710059
 C         3.534721         0.420840         0.987545
 C         2.827651         1.514732         1.600662
 C         1.473043         1.314419         1.398670
 C         1.086378        -0.048657         0.816784
 C        -0.064460        -0.026248        -0.272694
 O         0.684588        -1.003633         1.936078
 H         1.855322        -2.277017        -0.299785
 H         2.506690        -1.279163        -1.504246
 H         3.657261        -2.166374        -0.383936
 H         4.576231         0.410877         0.660901
 H         3.246437         2.464195         1.984072
 H         0.695374         1.884552         1.870590
 H         0.298883         0.010954        -1.315311
 H        -0.852591        -0.757019        -0.103463
 H        -0.552453         0.911800        -0.155779
 H         1.610874        -1.245962         2.280790
