19
Iteration:  2769
 C         2.725952        -1.641084        -0.564506
 C         2.524776        -0.559940         0.459815
 O         3.246819        -0.859328         1.604413
 C         3.451617         0.437269         0.889092
 C         2.732655         1.476780         1.605119
 C         1.403947         1.316871         1.502131
 C         1.102791        -0.125727         0.865632
 C         0.065223        -0.190334        -0.225783
 O         0.624639        -0.788431         1.995485
 H         3.084293        -2.558748        -0.015142
 H         1.851467        -1.985067        -1.099916
 H         3.467349        -1.482531        -1.311311
 H         4.426921         0.505542         0.422035
 H         3.299573         2.164056         2.264427
 H         0.701253         1.864206         2.152915
 H         0.015199         0.780517        -0.725419
 H         0.241132        -1.042242        -0.915663
 H        -0.915664        -0.472544         0.176409
 H         1.358066        -0.834089         2.569627
