19
Iteration:  1278
 C         2.889806        -1.544764        -0.638874
 C         2.474647        -0.658129         0.563692
 O         3.356876        -0.986951         1.657967
 C         3.475715         0.316137         0.880523
 C         2.797297         1.559575         1.389259
 C         1.454559         1.241897         1.524216
 C         1.068031        -0.111350         0.986568
 C         0.057662         0.016732        -0.241139
 O         0.343966        -0.881263         2.049893
 H         2.466546        -2.558915        -0.646834
 H         2.716495        -1.095226        -1.659596
 H         3.912734        -1.725477        -0.571912
 H         4.429316         0.503845         0.295545
 H         3.172869         2.377683         2.030037
 H         0.723026         2.032479         1.841015
 H         0.611079         0.603382        -0.985396
 H        -0.386280        -0.907832        -0.616300
 H        -0.749525         0.554156         0.057498
 H         0.830193        -0.611853         2.861582
