19
Iteration:  4145
 C         2.720206        -1.690598        -0.644385
 C         2.533635        -0.641146         0.477088
 O         3.449886        -0.607614         1.656330
 C         3.508938         0.495154         0.737276
 C         2.605558         1.649164         1.291100
 C         1.411679         1.170000         1.440526
 C         1.048229        -0.233502         1.020076
 C        -0.081100        -0.003843        -0.074044
 O         0.656250        -1.157939         2.167142
 H         2.019248        -1.583132        -1.476611
 H         3.731310        -1.527839        -0.822484
 H         2.750090        -2.540095        -0.004154
 H         4.442233         0.624311         0.181501
 H         3.062256         2.590919         1.684695
 H         0.683730         1.857136         1.932858
 H         0.291888         0.196820        -1.083158
 H        -0.663648        -0.922588        -0.250957
 H        -0.801283         0.743540         0.329774
 H         1.384598        -1.004274         2.860138
