19
Iteration:  1895charge 0 multiplicity 1
 C         2.677375        -1.349187        -0.688190
 C         2.508419        -0.670429         0.561186
 O         3.169401        -0.961281         1.791240
 C         3.516392         0.262846         1.094668
 C         2.862231         1.505251         1.451101
 C         1.492055         1.418147         1.306552
 C         1.040356        -0.082916         0.917755
 C         0.084575        -0.198652        -0.245908
 O         0.561748        -0.930854         1.999236
 H         1.932853        -2.064271        -1.106559
 H         2.614977        -0.537632        -1.463979
 H         3.556919        -1.890243        -0.753642
 H         4.552613         0.201268         0.793650
 H         3.410876         2.394391         1.763153
 H         0.862511         2.269324         1.536570
 H         0.587192        -0.160961        -1.223327
 H        -0.514204        -1.151594        -0.131173
 H        -0.656852         0.541189        -0.017521
 H         1.331202        -0.823627         2.696438
