19
Iteration:  4942
 C         2.493997        -1.906955        -0.299731
 C         2.476878        -0.628970         0.515008
 O         3.526578        -0.694662         1.425822
 C         3.364192         0.587778         0.820044
 C         2.692550         1.682958         1.440284
 C         1.427842         1.255730         1.600067
 C         1.142847        -0.155928         1.054060
 C         0.186169         0.028024        -0.259491
 O         0.563994        -1.085808         1.950222
 H         3.546434        -1.930776        -0.790449
 H         2.554353        -2.813423         0.461448
 H         1.539397        -2.066646        -0.865173
 H         4.211538         0.902475         0.247433
 H         3.107731         2.699137         1.454621
 H         0.615459         1.989019         1.856303
 H         0.928605         0.429689        -1.014490
 H        -0.302873        -0.867770        -0.707969
 H        -0.778674         0.549254        -0.024756
 H         1.280689        -1.618425         2.417833
