19
Iteration:  1089
 C         2.609774        -1.579821        -0.673723
 C         2.572304        -0.670516         0.565823
 O         3.300291        -0.931717         1.661751
 C         3.491093         0.403896         0.949764
 C         2.784424         1.573344         1.488369
 C         1.464519         1.196793         1.535319
 C         1.141314        -0.159382         0.956418
 C         0.194180        -0.066923        -0.311982
 O         0.417776        -0.800892         2.016675
 H         2.034789        -2.458317        -0.461632
 H         2.184648        -1.079372        -1.503122
 H         3.632848        -1.925178        -0.967653
 H         4.444123         0.555527         0.416429
 H         3.212736         2.482804         1.970958
 H         0.698098         1.841076         1.933372
 H         0.453930         0.615440        -1.086986
 H         0.213257        -1.022499        -0.730075
 H        -0.755489         0.143599         0.041367
 H         0.858751        -0.671165         2.915117
