19
Iteration:  2216charge 0 multiplicity 1
 C         2.753842        -1.641317        -0.663020
 C         2.503931        -0.623090         0.476295
 O         3.346815        -0.822663         1.728711
 C         3.485701         0.373527         0.917413
 C         2.734516         1.533066         1.514159
 C         1.442625         1.183159         1.560933
 C         1.074580        -0.136677         0.897723
 C         0.087053        -0.036260        -0.189309
 O         0.507165        -0.853986         1.932214
 H         1.777557        -2.125481        -0.831180
 H         3.023889        -1.081174        -1.581592
 H         3.517257        -2.470677        -0.512467
 H         4.464591         0.551671         0.504168
 H         3.111943         2.460975         1.979799
 H         0.614171         1.636641         2.103298
 H         0.627305        -0.006624        -1.161350
 H        -0.466696        -1.020808        -0.213475
 H        -0.734218         0.732657        -0.242606
 H         0.974099        -0.547529         2.710873
