19
Iteration:  4770charge 0 multiplicity 1
 C         2.842976        -1.548080        -0.663988
 C         2.448126        -0.683591         0.490568
 O         3.359105        -0.830759         1.680567
 C         3.498076         0.337516         0.916251
 C         2.681895         1.489994         1.350062
 C         1.370458         1.255148         1.289479
 C         1.083607        -0.105094         0.903034
 C        -0.091816        -0.135929        -0.009903
 O         0.637390        -0.837302         2.171217
 H         3.884595        -1.319968        -0.984276
 H         2.931551        -2.570886        -0.366290
 H         2.204647        -1.262256        -1.485445
 H         4.481815         0.518822         0.444225
 H         3.135469         2.432349         1.472719
 H         0.710154         2.014509         1.687439
 H         0.091225         0.330358        -1.001417
 H        -0.320659        -1.162149        -0.419747
 H        -0.959429         0.357624         0.484764
 H         1.454543        -0.839333         2.738180
