19
Iteration:  3591
 C         2.756671        -1.712341        -0.560238
 C         2.553041        -0.659691         0.440487
 O         3.446525        -0.764826         1.560237
 C         3.373218         0.456514         0.770071
 C         2.698759         1.586949         1.476946
 C         1.383183         1.343422         1.525877
 C         1.063626        -0.143049         1.001273
 C        -0.028282        -0.097884        -0.021197
 O         0.614665        -1.006173         1.998959
 H         3.229282        -1.223640        -1.501357
 H         3.388227        -2.524147        -0.310718
 H         1.813907        -2.184233        -0.926044
 H         4.332131         0.685493         0.212939
 H         3.147145         2.524624         1.879567
 H         0.572811         1.932874         1.952124
 H         0.167360         0.737188        -0.773187
 H        -0.084029        -1.096707        -0.473596
 H        -0.967167         0.228970         0.368524
 H         1.381813        -0.901069         2.523686
