19
Iteration:  1254charge 0 multiplicity 1
 C         2.966644        -1.669962        -0.685446
 C         2.439081        -0.734710         0.531592
 O         3.361694        -0.764715         1.653676
 C         3.403619         0.330890         0.769511
 C         2.769716         1.390181         1.526403
 C         1.423196         1.190438         1.610806
 C         1.094096        -0.123686         1.003821
 C         0.078511         0.046544        -0.196603
 O         0.352968        -0.785096         1.968328
 H         2.501293        -2.626376        -0.726020
 H         2.745667        -1.213249        -1.613154
 H         4.052819        -1.851539        -0.682190
 H         4.337121         0.592798         0.274718
 H         3.289389         2.261196         1.869388
 H         0.656313         1.712182         2.268405
 H         0.713675         0.116419        -1.073365
 H        -0.616034        -0.747291        -0.306057
 H        -0.443949         1.006952        -0.090609
 H         0.781410        -0.480912         2.905337
