19
Iteration:  2533
 C         2.730226        -1.729277        -0.529237
 C         2.509260        -0.621803         0.460357
 O         3.372383        -0.751286         1.659334
 C         3.555542         0.397434         0.899992
 C         2.718695         1.465676         1.654296
 C         1.399426         1.171262         1.546985
 C         1.067128        -0.119145         0.831181
 C         0.092459         0.011030        -0.338495
 O         0.457613        -0.854572         1.984129
 H         1.670033        -1.906836        -0.923304
 H         3.466683        -1.400356        -1.272081
 H         3.018239        -2.587744         0.033885
 H         4.524878         0.603952         0.439098
 H         3.236622         2.350166         2.032324
 H         0.730847         1.804464         2.054059
 H         0.571864         0.224553        -1.343379
 H        -0.480883        -0.955934        -0.307252
 H        -0.569370         0.892478        -0.242563
 H         1.235024        -1.098472         2.432158
