19
Iteration:   530
 C         2.588861        -1.630838        -0.684855
 C         2.469457        -0.643156         0.486089
 O         3.303538        -0.960785         1.667785
 C         3.502194         0.352351         1.052321
 C         2.908395         1.517183         1.672917
 C         1.536513         1.360252         1.375897
 C         1.109022        -0.061325         0.865462
 C         0.146963        -0.263060        -0.234837
 O         0.405421        -0.630666         1.963068
 H         1.947025        -2.489622        -0.560934
 H         2.270229        -1.136097        -1.550617
 H         3.663938        -1.957728        -0.798257
 H         4.556471         0.531892         0.707282
 H         3.310476         2.306936         2.277088
 H         0.651868         1.890003         1.738075
 H         0.280340        -1.222997        -0.735458
 H        -0.736186        -0.335827         0.373696
 H         0.021423         0.449920        -1.010870
 H         1.111427        -1.008957         2.568787
