19
Iteration:  1695
 C         2.586346        -1.790673        -0.416257
 C         2.517249        -0.710043         0.625751
 O         3.563660        -0.684678         1.667994
 C         3.469783         0.413733         0.755444
 C         2.751273         1.491520         1.483369
 C         1.493823         1.157680         1.769315
 C         1.088975        -0.059076         0.971275
 C         0.259656         0.049140        -0.316935
 O         0.216021        -0.871853         1.756263
 H         1.877448        -2.602875        -0.403653
 H         2.404819        -1.264305        -1.327692
 H         3.659525        -2.101749        -0.770218
 H         4.241270         0.603444        -0.027044
 H         3.130710         2.431686         1.876744
 H         0.812405         1.514949         2.479849
 H         0.838168         0.770534        -0.949497
 H         0.153786        -0.947198        -0.729624
 H        -0.781401         0.500479        -0.221846
 H         0.741377        -1.488864         2.321965
