19
Iteration:  1980charge 0 multiplicity 1
 C         2.525472        -1.856671        -0.368182
 C         2.515037        -0.583285         0.448738
 O         3.390451        -0.754917         1.601728
 C         3.555165         0.429164         0.821861
 C         2.748484         1.519375         1.587161
 C         1.401730         1.213748         1.676417
 C         1.174984        -0.037329         0.949231
 C         0.176124         0.094228        -0.313640
 O         0.456932        -0.982779         1.787237
 H         2.159567        -2.746479         0.221832
 H         2.109488        -1.612417        -1.366489
 H         3.578558        -2.005281        -0.599151
 H         4.394011         0.664444         0.195628
 H         3.286660         2.329885         2.108882
 H         0.633712         1.665410         2.292230
 H         0.302305         1.035716        -0.895430
 H         0.316240        -0.837547        -0.975385
 H        -0.854164        -0.024055         0.022989
 H         0.912505        -0.882207         2.642685
