19
Iteration:  2998charge 0 multiplicity 1
 C         2.721140        -1.564806        -0.673871
 C         2.495563        -0.573141         0.485498
 O         3.288828        -0.810914         1.680210
 C         3.555817         0.400706         1.020902
 C         2.693690         1.612070         1.384832
 C         1.409708         1.306515         1.369104
 C         1.093132        -0.175734         0.956558
 C        -0.021337        -0.164204        -0.062407
 O         0.661538        -1.040979         2.019425
 H         2.458548        -1.015216        -1.654408
 H         3.731507        -1.851195        -0.726211
 H         2.023586        -2.363453        -0.701137
 H         4.491600         0.662562         0.525595
 H         3.223843         2.506420         1.727585
 H         0.552997         1.968573         1.434493
 H         0.488738         0.378947        -0.891476
 H        -0.548875        -1.104899        -0.263705
 H        -0.758391         0.537509         0.321095
 H         1.319504        -1.060000         2.769306
