19
Iteration:  2345
 C         2.701145        -1.751767        -0.492658
 C         2.497339        -0.738143         0.581891
 O         3.397865        -0.826814         1.648109
 C         3.403237         0.407920         0.874362
 C         2.748413         1.587621         1.479841
 C         1.437324         1.302284         1.554606
 C         1.120319        -0.088779         0.963580
 C         0.257746         0.121752        -0.235876
 O         0.344189        -0.998909         1.838002
 H         2.784722        -2.778189        -0.142731
 H         1.998074        -1.768132        -1.341867
 H         3.695513        -1.547427        -1.010033
 H         4.365046         0.618755         0.411796
 H         3.237445         2.466585         1.890925
 H         0.564711         1.814887         2.022983
 H         0.770102         0.719844        -1.003682
 H        -0.166181        -0.886626        -0.558318
 H        -0.535934         0.788317         0.199600
 H         0.980755        -1.177981         2.540810
