19
Iteration:  1722charge 0 multiplicity 1
 C         2.624679        -1.919359        -0.296787
 C         2.535871        -0.653445         0.485363
 O         3.552970        -0.735043         1.505370
 C         3.430502         0.547351         0.788830
 C         2.772464         1.515309         1.638032
 C         1.481053         1.159736         1.693245
 C         1.108071        -0.096883         0.906081
 C         0.234174         0.200798        -0.280459
 O         0.212672        -0.963781         1.769368
 H         1.950750        -2.699617         0.147193
 H         2.447694        -1.977128        -1.422637
 H         3.616895        -2.120575        -0.308097
 H         4.227321         0.892953         0.162602
 H         3.268729         2.192293         2.312713
 H         0.563262         1.557106         2.223431
 H         0.951959         0.513400        -1.047826
 H        -0.158712        -0.838788        -0.476949
 H        -0.542184         0.919817        -0.319259
 H         0.740388        -1.162493         2.608295
