19
Iteration:  1368
 C         2.810096        -1.771181        -0.570638
 C         2.478258        -0.655427         0.439240
 O         3.362972        -0.894684         1.660715
 C         3.423690         0.403932         0.900263
 C         2.780850         1.542476         1.563066
 C         1.444564         1.307149         1.526592
 C         1.096753        -0.066821         0.884659
 C         0.100776         0.075925        -0.178021
 O         0.424330        -0.892427         1.921029
 H         2.122545        -2.607962        -0.289146
 H         2.633995        -1.360980        -1.573442
 H         3.839498        -2.267816        -0.488590
 H         4.382998         0.549447         0.458281
 H         3.198718         2.442649         1.985956
 H         0.758341         1.847231         2.121227
 H         0.645991         0.570794        -0.985356
 H        -0.468008        -0.840435        -0.508081
 H        -0.759191         0.685950         0.184183
 H         0.984974        -1.324150         2.499976
