19
Iteration:  1586charge 0 multiplicity 1
 C         2.753865        -1.598687        -0.702536
 C         2.480586        -0.628866         0.444678
 O         3.322048        -1.046705         1.619662
 C         3.493624         0.264321         1.078211
 C         2.779643         1.483588         1.696507
 C         1.477160         1.414046         1.415327
 C         1.075289        -0.029045         0.919203
 C         0.060918        -0.189752        -0.254134
 O         0.498122        -0.672865         1.945444
 H         2.068395        -2.366530        -0.410155
 H         2.327033        -1.274073        -1.596111
 H         3.871283        -1.865033        -0.647550
 H         4.551299         0.405339         0.896832
 H         3.282472         2.311501         2.153939
 H         0.630440         1.993629         1.810122
 H         0.363209         0.236643        -1.217132
 H        -0.102110        -1.246504        -0.341002
 H        -0.975165         0.253789        -0.105517
 H         0.966953        -0.390858         2.743228
