19
Iteration:  1944charge 0 multiplicity 1
 C         2.836114        -1.681542        -0.552498
 C         2.476039        -0.670143         0.547365
 O         3.316384        -0.910535         1.667411
 C         3.473484         0.342874         0.921454
 C         2.739739         1.515388         1.524234
 C         1.434571         1.302513         1.466567
 C         1.139531        -0.058345         0.888873
 C         0.035635         0.096222        -0.214917
 O         0.458335        -0.874592         1.945272
 H         2.548239        -2.747438        -0.478060
 H         2.400394        -1.409201        -1.520028
 H         4.021999        -1.675083        -0.639708
 H         4.366199         0.292529         0.288618
 H         3.303299         2.281813         2.019678
 H         0.558311         1.807991         1.907651
 H         0.361936         0.801289        -0.989364
 H        -0.107863        -0.864633        -0.718100
 H        -0.926759         0.443657         0.328724
 H         1.012323        -1.397729         2.524819
