19
Iteration:  2171charge 0 multiplicity 1
 C         2.902363        -1.488769        -0.761624
 C         2.498501        -0.674944         0.510079
 O         3.308086        -0.962546         1.755647
 C         3.406179         0.271545         1.028269
 C         2.769546         1.442867         1.510449
 C         1.443640         1.322918         1.268630
 C         1.051200        -0.040061         0.924614
 C        -0.057553        -0.071358        -0.104183
 O         0.522937        -0.794758         2.000543
 H         2.494034        -2.467166        -1.008498
 H         3.238673        -0.889280        -1.622147
 H         3.982593        -1.858985        -0.346050
 H         4.377409         0.424803         0.640370
 H         3.171623         2.419953         1.841295
 H         0.733831         2.051492         1.622215
 H         0.088355         0.572765        -1.001705
 H        -0.247938        -1.144317        -0.324218
 H        -0.969323         0.204768         0.604146
 H         1.219778        -1.212364         2.481823
