19
Iteration:  2840charge 0 multiplicity 1
 C         2.649994        -1.610209        -0.591042
 C         2.527455        -0.676350         0.521713
 O         3.407290        -0.703066         1.812540
 C         3.384140         0.376766         0.833896
 C         2.632709         1.598393         1.253136
 C         1.410559         1.230485         1.662862
 C         1.167821        -0.171197         1.040648
 C         0.148112         0.049473        -0.149747
 O         0.565315        -1.115103         1.859297
 H         1.752512        -2.168199        -0.784460
 H         2.904411        -1.140853        -1.596300
 H         3.433765        -2.436731        -0.431626
 H         4.282437         0.661386         0.212063
 H         3.121262         2.571653         1.098582
 H         0.725476         1.864522         2.172228
 H         0.737954         0.372110        -1.011340
 H        -0.499119        -0.786441        -0.362971
 H        -0.585598         0.884271        -0.046129
 H         1.077786        -1.172921         2.649744
