19
Iteration:   319
 C         2.818230        -1.894475        -0.282695
 C         2.538427        -0.596756         0.403163
 O         3.343255        -0.856796         1.622790
 C         3.550919         0.305108         0.810597
 C         2.861937         1.433475         1.446320
 C         1.444683         1.352573         1.556835
 C         1.029278         0.027921         0.869064
 C        -0.064025         0.243213        -0.121470
 O         0.411179        -0.938396         1.804783
 H         2.625395        -2.666369         0.427618
 H         2.146044        -2.057441        -1.133179
 H         3.819705        -1.969359        -0.634608
 H         4.592495         0.406009         0.373689
 H         3.422240         2.312736         1.833608
 H         0.752904         2.063794         2.095613
 H        -0.447150        -0.725949        -0.366168
 H        -0.793001         0.764852         0.468801
 H         0.176689         0.750023        -1.030408
 H         1.036453        -1.472433         2.427200
