19
Iteration:  4409charge 0 multiplicity 1
 C         2.758694        -1.801838        -0.443582
 C         2.494593        -0.580426         0.503733
 O         3.491851        -0.683357         1.602729
 C         3.430358         0.500733         0.689389
 C         2.630225         1.673778         1.240824
 C         1.386227         1.288277         1.494908
 C         1.056918        -0.124059         1.005815
 C        -0.120421         0.001743         0.080467
 O         0.712844        -1.174163         1.936630
 H         2.943694        -1.505796        -1.520504
 H         3.496598        -2.584904        -0.080598
 H         1.828221        -2.462433        -0.562319
 H         4.255410         0.679126         0.024017
 H         2.908240         2.653537         1.585322
 H         0.764060         1.883631         2.144639
 H         0.132232         0.752338        -0.681993
 H        -0.181550        -1.112100        -0.153388
 H        -1.011526         0.380103         0.711450
 H         1.517952        -1.326758         2.534976
