19
Iteration:  4112
 C         2.641142        -1.729772        -0.526213
 C         2.507518        -0.659441         0.545036
 O         3.382664        -0.722429         1.672000
 C         3.401141         0.543287         0.691342
 C         2.667961         1.720010         1.236645
 C         1.392248         1.307623         1.579209
 C         1.196832        -0.146946         1.032867
 C         0.010339        -0.093155         0.013327
 O         0.664698        -1.142084         1.921510
 H         1.822205        -2.152818        -1.177144
 H         3.354342        -1.342227        -1.189415
 H         3.132201        -2.566404         0.011525
 H         4.307302         0.718220         0.183526
 H         2.904119         2.810312         1.369809
 H         0.620584         1.975297         1.994694
 H         0.227368         0.592652        -0.849061
 H         0.065372        -1.153672        -0.245362
 H        -0.918049         0.142087         0.576538
 H         1.483388        -1.357889         2.459092
