19
Iteration:  2482charge 0 multiplicity 1
 C         2.710397        -1.546433        -0.661836
 C         2.517501        -0.629709         0.506202
 O         3.259959        -0.948617         1.718415
 C         3.560281         0.353151         1.079621
 C         2.737620         1.559191         1.427176
 C         1.439500         1.283717         1.422789
 C         1.077289        -0.042316         0.980952
 C         0.077258        -0.098958        -0.241312
 O         0.505828        -0.923427         1.967757
 H         1.781483        -1.734973        -1.220022
 H         3.457677        -1.026806        -1.223695
 H         3.174913        -2.428680        -0.160225
 H         4.565927         0.578916         0.689144
 H         3.350519         2.387267         1.848240
 H         0.706614         2.103490         1.391202
 H         0.484672         0.603102        -1.020701
 H         0.027485        -1.100951        -0.599688
 H        -0.890734         0.310550        -0.003054
 H         1.203246        -1.156520         2.660684
