19
Iteration:  3493charge 0 multiplicity 1
 C         2.959741        -1.732384        -0.578676
 C         2.524382        -0.719430         0.531089
 O         3.499276        -0.702667         1.548002
 C         3.477031         0.501991         0.727022
 C         2.642441         1.616456         1.287142
 C         1.477104         1.096764         1.687955
 C         1.088427        -0.166120         1.028036
 C        -0.069841         0.025577        -0.116313
 O         0.330151        -0.912474         2.056027
 H         2.129734        -1.934606        -1.296533
 H         3.577335        -1.231247        -1.278782
 H         3.395294        -2.719570        -0.224437
 H         4.401850         0.549025         0.165939
 H         2.886293         2.480086         1.831781
 H         0.738216         1.473853         2.404848
 H         0.268834         0.473860        -1.111040
 H        -0.576010        -0.940678        -0.222163
 H        -0.824758         0.651595         0.298034
 H         1.099813        -1.296825         2.470574
