19
Iteration:  1033
 C         2.753916        -1.681585        -0.563141
 C         2.620057        -0.639339         0.423046
 O         3.192540        -0.904197         1.708457
 C         3.550444         0.388759         0.989338
 C         2.742428         1.579152         1.561884
 C         1.447318         1.222435         1.511254
 C         1.139751        -0.116383         0.824886
 C        -0.112715         0.078117        -0.165773
 O         0.626731        -0.933280         1.851103
 H         1.966177        -2.418525        -0.428962
 H         2.775233        -1.322077        -1.622955
 H         3.684004        -2.171200        -0.440872
 H         4.629493         0.486063         0.693879
 H         3.196183         2.486089         1.871611
 H         0.645986         1.880801         1.873985
 H         0.148454        -0.121122        -1.146930
 H        -0.826054        -0.615314         0.187156
 H        -0.621121         1.041758        -0.084700
 H         1.160029        -0.693890         2.660301
