19
Iteration:  3928charge 0 multiplicity 1
 C         2.631259        -1.683596        -0.689867
 C         2.506180        -0.620034         0.452171
 O         3.385597        -0.643596         1.675806
 C         3.483182         0.480147         0.819519
 C         2.732863         1.585941         1.452908
 C         1.413330         1.267153         1.489100
 C         1.116300        -0.189814         0.972470
 C         0.045596        -0.270969        -0.086026
 O         0.601489        -0.885394         2.045734
 H         3.142215        -2.645146        -0.294902
 H         1.688553        -2.068501        -1.050668
 H         3.366079        -1.338501        -1.445780
 H         4.342606         0.586409         0.180268
 H         3.027750         2.436712         2.101876
 H         0.678305         1.903652         2.061349
 H         0.149246         0.276066        -1.008050
 H        -0.088394        -1.326667        -0.458969
 H        -1.004258        -0.009241         0.201385
 H         1.324529        -1.033017         2.745098
