19
Iteration:  4866
 C         2.842689        -1.678791        -0.562307
 C         2.531370        -0.617629         0.430482
 O         3.453854        -0.873547         1.573291
 C         3.470084         0.425426         0.855837
 C         2.651742         1.568729         1.293595
 C         1.352101         1.298964         1.437919
 C         1.025485        -0.089005         1.021491
 C        -0.009457        -0.118319         0.001918
 O         0.525619        -0.853059         2.097958
 H         3.654419        -2.356866        -0.168158
 H         1.959016        -2.400177        -0.603595
 H         3.071046        -1.161394        -1.504793
 H         4.457715         0.614353         0.409859
 H         3.147746         2.475732         1.508474
 H         0.590407         2.040149         1.731469
 H         0.398254         0.460509        -0.899559
 H        -0.088510        -1.175100        -0.424199
 H        -0.983434         0.115912         0.564884
 H         1.311726        -1.322595         2.397357
