19
Iteration:   486
 C         2.832880        -1.483486        -0.641660
 C         2.512630        -0.719183         0.594444
 O         3.100307        -1.057675         1.797289
 C         3.449818         0.264531         1.053423
 C         2.816664         1.586979         1.282126
 C         1.454257         1.292406         1.293412
 C         1.111840        -0.112617         0.881948
 C        -0.003698         0.049971        -0.179541
 O         0.626860        -0.827875         2.078994
 H         2.428473        -2.494995        -0.586567
 H         2.503171        -1.000601        -1.522759
 H         3.936795        -1.622139        -0.672664
 H         4.454684         0.077871         0.652414
 H         3.183608         2.587708         1.656652
 H         0.663821         2.007711         1.574427
 H        -0.504895        -0.844227        -0.558011
 H        -0.726734         0.774444         0.157030
 H         0.483777         0.424690        -1.067863
 H         1.402146        -1.160190         2.445564
