19
Iteration:  1286charge 0 multiplicity 1
 C         2.814312        -1.545164        -0.662262
 C         2.500294        -0.632558         0.563989
 O         3.353125        -0.998451         1.685681
 C         3.527789         0.337763         0.948719
 C         2.744077         1.538575         1.393435
 C         1.458877         1.323130         1.457201
 C         1.079063        -0.127298         1.003856
 C         0.074251        -0.023998        -0.202165
 O         0.382441        -0.878297         1.988584
 H         2.212744        -2.436835        -0.559517
 H         2.505854        -1.126988        -1.592282
 H         3.907089        -1.809728        -0.706282
 H         4.519762         0.407388         0.476453
 H         3.294254         2.332030         1.860076
 H         0.631293         1.980228         1.871504
 H         0.544892         0.731189        -0.865271
 H        -0.207260        -0.952319        -0.705607
 H        -0.908562         0.496726         0.126131
 H         0.902248        -0.914014         2.774603
