19
Iteration:  4545charge 0 multiplicity 1
 C         2.728882        -1.614736        -0.639007
 C         2.483445        -0.575937         0.449680
 O         3.279665        -0.797057         1.650273
 C         3.489992         0.481419         0.799495
 C         2.711328         1.582394         1.328142
 C         1.333651         1.294653         1.410275
 C         1.101077        -0.129659         0.932587
 C        -0.056185        -0.241411        -0.006095
 O         0.785469        -0.953400         2.167345
 H         1.749166        -2.077494        -0.644808
 H         2.973865        -1.140157        -1.581389
 H         3.514731        -2.313042        -0.336767
 H         4.484862         0.547591         0.253302
 H         3.369586         2.372669         1.693409
 H         0.634430         1.831954         2.040188
 H         0.137234         0.295389        -1.038948
 H        -0.526338        -1.250814        -0.253498
 H        -1.029700         0.258807         0.429653
 H         1.706688        -0.943316         2.556429
