19
Iteration:  3686charge 0 multiplicity 1
 C         2.467634        -1.684835        -0.530534
 C         2.496357        -0.542105         0.423783
 O         3.369990        -0.707277         1.581816
 C         3.572381         0.499540         0.791144
 C         2.621423         1.641030         1.552823
 C         1.341931         1.294207         1.447662
 C         1.118064        -0.164531         0.921120
 C         0.044268        -0.168325        -0.165401
 O         0.815665        -1.096322         2.119789
 H         2.847110        -2.556926        -0.216104
 H         1.514116        -1.925958        -0.945064
 H         3.040593        -1.573092        -1.466061
 H         4.627918         0.623439         0.380369
 H         2.959708         2.669364         1.879342
 H         0.593358         1.918767         1.949253
 H         0.386923         0.335420        -1.092405
 H        -0.098397        -1.214958        -0.331207
 H        -0.882540         0.261644         0.100555
 H         1.663352        -1.045127         2.728040
