19
Iteration:  4379
 C         2.743983        -1.758326        -0.496125
 C         2.516517        -0.612399         0.463828
 O         3.444297        -0.525727         1.610015
 C         3.461013         0.567950         0.597707
 C         2.674970         1.610955         1.244237
 C         1.481590         1.109918         1.645490
 C         1.055658        -0.221863         1.016242
 C         0.001815        -0.038693         0.034513
 O         0.545320        -1.110836         2.016163
 H         2.577396        -1.466149        -1.521969
 H         3.672791        -2.298912        -0.459884
 H         2.111006        -2.614243        -0.374891
 H         4.316547         0.670966        -0.008098
 H         2.878746         2.663006         1.382256
 H         0.814077         1.825076         2.133012
 H         0.400861         0.435582        -0.909844
 H        -0.495712        -1.000953        -0.184312
 H        -0.895976         0.349820         0.523068
 H         1.125251        -1.132005         2.826602
