19
Iteration:  1404charge 0 multiplicity 1
 C         2.755865        -1.589654        -0.557947
 C         2.466598        -0.685525         0.640248
 O         3.537313        -0.782024         1.740993
 C         3.410194         0.314747         0.827319
 C         2.781324         1.499591         1.326616
 C         1.510171         1.102442         1.619946
 C         1.077115        -0.168874         1.030467
 C         0.191079         0.123109        -0.221683
 O         0.203641        -0.928863         1.863667
 H         2.250975        -2.562739        -0.605940
 H         2.270670        -1.216851        -1.468566
 H         3.868864        -1.611156        -0.865453
 H         4.241634         0.395838         0.146256
 H         3.225622         2.510725         1.294037
 H         0.753858         1.759251         2.194169
 H         0.776541         0.676325        -1.002620
 H        -0.211651        -0.753910        -0.669756
 H        -0.422517         1.008485         0.166268
 H         0.638076        -0.858718         2.663560
