19
Iteration:  2404charge 0 multiplicity 1
 C         2.726442        -1.699045        -0.587981
 C         2.459351        -0.676789         0.489137
 O         3.279431        -0.892638         1.689466
 C         3.508895         0.427070         0.955769
 C         2.791360         1.629522         1.621368
 C         1.453405         1.348521         1.506078
 C         1.067567        -0.038049         0.912898
 C         0.083917        -0.087977        -0.268686
 O         0.541072        -0.954099         1.890131
 H         1.745928        -2.262808        -0.753718
 H         2.942990        -1.179750        -1.521584
 H         3.484504        -2.336035        -0.206104
 H         4.489158         0.546454         0.480269
 H         3.232776         2.523379         2.098577
 H         0.720669         2.093872         1.705820
 H         0.493655         0.527488        -1.091789
 H        -0.242036        -1.068474        -0.577542
 H        -0.810360         0.363014         0.155111
 H         1.280456        -1.366726         2.394307
