19
Iteration:   878
 C         2.707173        -1.783059        -0.568965
 C         2.572178        -0.664928         0.458018
 O         3.189185        -0.800470         1.793061
 C         3.510287         0.375323         0.888212
 C         2.800369         1.561364         1.375637
 C         1.485089         1.272652         1.514751
 C         1.153262        -0.107171         0.905422
 C         0.127611         0.169518        -0.110589
 O         0.409934        -1.003087         1.863447
 H         2.198466        -2.694660        -0.163685
 H         2.313915        -1.513009        -1.562041
 H         3.793799        -2.106816        -0.644161
 H         4.537319         0.441406         0.631567
 H         3.281719         2.422576         1.818725
 H         0.919176         1.999961         2.014571
 H        -0.617647         0.909235         0.206617
 H         0.642382         0.630659        -0.969363
 H        -0.424949        -0.732776        -0.362286
 H         1.049531        -1.253574         2.471784
