19
Iteration:  3586
 C         2.704705        -1.724690        -0.596666
 C         2.515602        -0.620423         0.421742
 O         3.433959        -0.765785         1.598186
 C         3.389663         0.486631         0.752774
 C         2.692172         1.629989         1.512412
 C         1.388573         1.306904         1.511018
 C         1.070893        -0.112456         0.984485
 C         0.019542        -0.092047        -0.059794
 O         0.635900        -1.021204         2.023444
 H         3.111805        -1.423628        -1.521654
 H         3.467863        -2.501599        -0.264018
 H         1.807483        -2.305057        -0.802907
 H         4.322194         0.589104         0.261628
 H         3.215683         2.494988         1.864973
 H         0.582650         1.897927         1.968266
 H         0.224187         0.629347        -0.816080
 H        -0.132032        -1.066145        -0.545552
 H        -0.977653         0.121120         0.436298
 H         1.448895        -1.194356         2.657909
