19
Iteration:  4023
 C         2.688743        -1.567043        -0.551988
 C         2.493806        -0.587351         0.531210
 O         3.422856        -0.684806         1.601918
 C         3.458119         0.487656         0.763256
 C         2.690230         1.617684         1.298139
 C         1.449449         1.228116         1.535546
 C         1.098564        -0.201963         0.988927
 C         0.064762        -0.153161        -0.112629
 O         0.535543        -1.093774         2.101433
 H         2.592230        -2.442298         0.030237
 H         1.797644        -1.576417        -1.224489
 H         3.722463        -1.507613        -0.986056
 H         4.329135         0.527344         0.087446
 H         3.123556         2.588283         1.510475
 H         0.748977         1.981534         1.965576
 H         0.426350         0.221697        -1.164387
 H        -0.182560        -1.232935        -0.318139
 H        -0.872070         0.321077         0.145122
 H         1.217959        -1.177005         2.771871
