19
Iteration:  1112charge 0 multiplicity 1
 C         2.788226        -1.596818        -0.645653
 C         2.496641        -0.671214         0.578739
 O         3.506273        -0.838818         1.687586
 C         3.556517         0.286256         0.857937
 C         2.798359         1.421012         1.464336
 C         1.426849         1.213088         1.502097
 C         1.018800        -0.135193         0.964137
 C         0.068084         0.033424        -0.220515
 O         0.249967        -0.796669         1.990791
 H         2.368405        -2.568882        -0.554493
 H         2.524544        -1.218560        -1.572838
 H         3.919138        -1.785267        -0.712122
 H         4.437197         0.532008         0.259873
 H         3.346426         2.395457         1.757813
 H         0.805588         1.875005         2.103496
 H         0.097197         0.997809        -0.665119
 H         0.303152        -0.666537        -0.989254
 H        -0.845028        -0.118144         0.178415
 H         0.655982        -0.752910         2.828958
