19
Iteration:   512
 C         2.577087        -1.509544        -0.727562
 C         2.565940        -0.688396         0.551173
 O         3.203872        -0.972765         1.811179
 C         3.519519         0.231345         1.039751
 C         2.794336         1.476246         1.519516
 C         1.475655         1.375106         1.352623
 C         1.099793        -0.032747         0.909430
 C         0.135294        -0.177919        -0.290261
 O         0.554933        -0.721618         2.049170
 H         2.248237        -2.566483        -0.583648
 H         2.030790        -0.969006        -1.560132
 H         3.659829        -1.594229        -1.046745
 H         4.506826         0.160778         0.565963
 H         3.279190         2.368520         1.843650
 H         0.750343         2.159658         1.536884
 H         0.283789        -1.088365        -0.919627
 H        -0.974489        -0.165015         0.009613
 H         0.326058         0.648260        -1.053460
 H         1.292731        -0.801349         2.698340
