19
Iteration:  1463
 C         2.523209        -1.864615        -0.343321
 C         2.500240        -0.605898         0.511483
 O         3.396069        -0.820007         1.648671
 C         3.536348         0.454913         0.816367
 C         2.716608         1.534284         1.581813
 C         1.432335         1.193286         1.616570
 C         1.089720        -0.044779         0.861033
 C         0.166579         0.175605        -0.358477
 O         0.550760        -0.954512         1.829732
 H         1.876086        -2.608094         0.099995
 H         2.133288        -1.474714        -1.288480
 H         3.496320        -2.223604        -0.390863
 H         4.559009         0.477678         0.381074
 H         3.140124         2.159733         2.357571
 H         0.612954         1.595679         2.152452
 H         0.664505         0.866465        -1.018357
 H        -0.347983        -0.655440        -0.879246
 H        -0.665254         0.735324        -0.035910
 H         1.363684        -1.458520         2.233545
