19
Iteration:  3432
 C         2.449153        -1.709266        -0.501401
 C         2.495450        -0.538412         0.489035
 O         3.535806        -0.760133         1.626724
 C         3.470337         0.519627         0.839642
 C         2.632203         1.673030         1.410328
 C         1.389692         1.217676         1.618789
 C         1.155377        -0.175100         0.976046
 C         0.136739        -0.112683        -0.208595
 O         0.664136        -1.092335         1.935321
 H         1.691668        -1.471915        -1.365854
 H         3.441749        -2.068425        -0.823066
 H         2.019636        -2.511652         0.064393
 H         4.352813         0.890805         0.232836
 H         3.029734         2.704828         1.500091
 H         0.611348         1.899794         1.938494
 H         0.353117         0.629684        -0.990898
 H        -0.177708        -1.052884        -0.723538
 H        -0.753202         0.323680         0.315734
 H         1.059089        -1.074328         2.870236
