19
Iteration:  1755
 C         2.546359        -1.825147        -0.387321
 C         2.532190        -0.679855         0.565852
 O         3.431013        -0.801346         1.727435
 C         3.388777         0.438398         0.824742
 C         2.684132         1.578832         1.438100
 C         1.435020         1.192461         1.664520
 C         1.183930        -0.059147         0.917903
 C         0.240172         0.305722        -0.320291
 O         0.481135        -1.131684         1.774046
 H         2.280501        -2.790784         0.103319
 H         1.866873        -1.604945        -1.270979
 H         3.530279        -1.963717        -0.666134
 H         4.302969         0.570482         0.286411
 H         3.328316         2.356291         1.737905
 H         0.632248         1.807795         2.094927
 H         0.905985         0.616067        -1.128115
 H        -0.340125        -0.579930        -0.681837
 H        -0.418998         1.111675        -0.065872
 H         0.752537        -0.884846         2.620900
