19
Iteration:  4188charge 0 multiplicity 1
 C         2.611645        -1.651783        -0.614956
 C         2.457771        -0.542978         0.489487
 O         3.557392        -0.760948         1.519718
 C         3.401553         0.560578         0.751255
 C         2.657782         1.619273         1.408850
 C         1.407138         1.272252         1.565561
 C         1.064511        -0.090960         1.015858
 C         0.063688        -0.389485        -0.090712
 O         0.590560        -0.900501         2.102137
 H         2.779160        -1.324163        -1.621607
 H         3.496617        -2.193767        -0.426502
 H         1.789817        -2.357416        -0.491227
 H         4.320456         0.822565         0.226604
 H         3.090014         2.535969         1.846536
 H         0.626666         1.634278         2.255198
 H         0.450786        -0.091883        -1.039962
 H         0.130857        -1.425634        -0.287548
 H        -0.880057        -0.050714         0.269985
 H         1.422071        -1.144267         2.511297
