19
Iteration:  1561
 C         2.688616        -1.432283        -0.743962
 C         2.506575        -0.691875         0.555836
 O         3.296543        -1.020261         1.768014
 C         3.531922         0.259454         0.977328
 C         2.780861         1.459312         1.537376
 C         1.428511         1.299519         1.348704
 C         1.100875        -0.175596         0.921289
 C         0.242088        -0.100561        -0.332140
 O         0.377128        -0.679502         2.144256
 H         2.049055        -2.279632        -0.711075
 H         2.164332        -0.791293        -1.439476
 H         3.710842        -1.550665        -0.912297
 H         4.500794         0.284906         0.486683
 H         3.339348         2.336682         1.970854
 H         0.505354         1.929310         1.577521
 H         0.569514         0.572441        -1.081547
 H        -0.007688        -1.095993        -0.727812
 H        -0.701348         0.270624        -0.083071
 H         1.291955        -0.769463         2.662190
