19
Iteration:   549
 C         2.746385        -1.657714        -0.565311
 C         2.558976        -0.614968         0.476253
 O         3.373808        -0.981560         1.625687
 C         3.626813         0.328496         0.914834
 C         2.813779         1.394495         1.649617
 C         1.395832         1.367719         1.504540
 C         1.086466         0.036493         0.840631
 C        -0.051230        -0.179384        -0.275298
 O         0.397511        -0.661812         1.977460
 H         1.839076        -2.246534        -0.380120
 H         2.659230        -1.387653        -1.612589
 H         3.593662        -2.279970        -0.416279
 H         4.571292         0.512740         0.406660
 H         3.306621         2.160147         2.319856
 H         0.765662         2.139012         1.961620
 H         0.070291        -1.220867        -0.520250
 H        -1.042189         0.052322         0.013226
 H         0.278067         0.406910        -1.126320
 H         1.050962        -0.805540         2.656530
