19
Iteration:  4815charge 0 multiplicity 1
 C         2.537644        -1.502207        -0.717793
 C         2.508819        -0.584410         0.494457
 O         3.263376        -0.846967         1.709996
 C         3.572211         0.369412         0.957726
 C         2.717695         1.565192         1.426044
 C         1.364201         1.313297         1.339895
 C         1.142181        -0.058214         0.930379
 C         0.027841        -0.454715        -0.145437
 O         0.733165        -0.764938         2.109977
 H         3.454663        -2.098038        -0.648876
 H         1.781129        -2.189507        -0.638590
 H         2.650594        -0.765333        -1.507899
 H         4.533371         0.363665         0.506401
 H         3.178629         2.465673         1.869608
 H         0.548134         1.982586         1.702257
 H         0.258663        -0.405303        -1.177061
 H        -0.106398        -1.543353         0.051821
 H        -0.778629         0.186265         0.225857
 H         1.648926        -0.846408         2.575188
