19
Iteration:  1215
 C         2.514382        -1.663454        -0.453854
 C         2.520297        -0.578160         0.541727
 O         3.447759        -0.833362         1.625288
 C         3.561412         0.418667         0.965151
 C         2.760327         1.531089         1.524383
 C         1.416279         1.247490         1.583442
 C         1.091718        -0.093056         0.963996
 C         0.134123         0.006087        -0.283450
 O         0.495623        -1.022568         1.809155
 H         1.883245        -2.514904        -0.038658
 H         2.072775        -1.344664        -1.478736
 H         3.519656        -2.029873        -0.516483
 H         4.490666         0.598013         0.365806
 H         3.096802         2.570371         1.649959
 H         0.750590         2.087597         1.802355
 H         0.752062         0.173769        -1.200468
 H        -0.787278        -0.679659        -0.275095
 H        -0.369585         1.064449        -0.258061
 H         1.079332        -1.526564         2.400917
