19
Iteration:  3124
 C         2.731454        -1.792431        -0.605633
 C         2.518472        -0.652961         0.451630
 O         3.379469        -0.545769         1.802690
 C         3.456801         0.471266         0.772364
 C         2.727724         1.609742         1.332394
 C         1.495539         1.197626         1.599597
 C         1.055031        -0.074734         0.982070
 C        -0.068035         0.057763        -0.055254
 O         0.588980        -1.207573         1.860453
 H         2.850817        -1.360165        -1.596366
 H         3.661755        -2.368893        -0.402604
 H         1.878675        -2.507631        -0.496740
 H         4.406120         0.394841         0.286616
 H         3.251598         2.544425         1.471965
 H         0.752361         1.797752         2.124814
 H         0.318665         0.575627        -0.969612
 H        -0.368599        -1.008078        -0.202978
 H        -0.922084         0.662377         0.362587
 H         1.232843        -1.335823         2.583794
