19
Iteration:   937charge 0 multiplicity 1
 C         2.525820        -1.800536        -0.474411
 C         2.504115        -0.632411         0.497566
 O         3.411281        -0.784382         1.626666
 C         3.536090         0.419708         0.905422
 C         2.739739         1.551422         1.613854
 C         1.468663         1.226838         1.544605
 C         1.159850        -0.116461         0.896380
 C         0.149636         0.145281        -0.243888
 O         0.474926        -1.009293         1.813590
 H         1.892022        -2.580171        -0.083506
 H         2.204352        -1.551757        -1.500949
 H         3.560277        -2.117167        -0.603176
 H         4.555446         0.517059         0.428825
 H         3.094499         2.509854         1.989657
 H         0.648324         1.787738         2.054271
 H         0.461710         1.018163        -0.763841
 H         0.114114        -0.722568        -0.883996
 H        -0.858246         0.173308         0.140262
 H         0.705997        -0.732529         2.795577
