19
Iteration:   350charge 0 multiplicity 1
 C         2.689132        -1.907630        -0.402700
 C         2.502388        -0.717602         0.578830
 O         3.371717        -0.698204         1.757972
 C         3.471919         0.367363         0.738663
 C         2.838318         1.594845         1.320083
 C         1.620430         1.245287         1.609281
 C         1.113602        -0.122012         0.948126
 C         0.082751         0.277837        -0.160065
 O         0.300684        -1.022028         1.770245
 H         2.193944        -2.809738        -0.066857
 H         2.145030        -1.578781        -1.282893
 H         3.758060        -2.122297        -0.613872
 H         4.409667         0.255429         0.109792
 H         3.404321         2.497136         1.619805
 H         0.864115         1.698741         2.262974
 H         0.033063        -0.505943        -0.917101
 H        -0.850004         0.332554         0.434680
 H         0.343705         1.178983        -0.693216
 H         0.674573        -1.145607         2.602283
