19
Iteration:  4216charge 0 multiplicity 1
 C         2.590974        -1.581498        -0.705896
 C         2.473313        -0.609118         0.541286
 O         3.448954        -0.646300         1.653406
 C         3.461596         0.502759         0.738490
 C         2.718640         1.578321         1.405238
 C         1.374966         1.267011         1.408009
 C         1.126625        -0.175743         1.000996
 C         0.012835        -0.323963        -0.108812
 O         0.664887        -0.999481         2.185699
 H         2.556069        -0.977567        -1.708420
 H         3.543484        -2.228210        -0.495062
 H         1.734208        -2.319347        -0.523142
 H         4.426164         0.681583         0.252034
 H         3.109181         2.516627         1.860867
 H         0.528676         1.897069         1.721280
 H         0.133978         0.492687        -0.912928
 H         0.035959        -1.281862        -0.713293
 H        -0.925901        -0.273347         0.520722
 H         1.495665        -0.931857         2.723968
