19
Iteration:   436
 C         2.743941        -1.731476        -0.456854
 C         2.507363        -0.579335         0.514091
 O         3.380046        -0.842965         1.698068
 C         3.519629         0.408324         0.845283
 C         2.841664         1.506580         1.555103
 C         1.549250         1.240188         1.573919
 C         1.079218        -0.096280         0.809356
 C        -0.152591        -0.044814        -0.278893
 O         0.470889        -0.837762         1.866352
 H         1.798518        -2.303833        -0.586686
 H         3.041206        -1.398913        -1.491640
 H         3.520544        -2.448094        -0.027195
 H         4.565779         0.414360         0.426566
 H         3.454356         2.227690         2.083306
 H         0.803300         1.766580         2.208278
 H        -0.880698        -0.879234        -0.139059
 H        -0.545083         1.017243        -0.126858
 H         0.091485        -0.216289        -1.363032
 H         1.034625        -0.590234         2.733908
