19
Iteration:   734charge 0 multiplicity 1
 C         2.620253        -1.607955        -0.537400
 C         2.664056        -0.705835         0.601997
 O         3.205096        -0.982695         1.854628
 C         3.601669         0.341183         1.043502
 C         2.801618         1.550498         1.167896
 C         1.470512         1.303121         1.465701
 C         1.133438        -0.017610         0.920067
 C         0.006825         0.080223        -0.209017
 O         0.476947        -0.936061         1.873883
 H         1.882894        -2.455177        -0.408112
 H         2.468476        -0.918843        -1.378834
 H         3.682648        -2.006852        -0.885177
 H         4.723863         0.396071         0.810924
 H         3.396156         2.477761         1.291877
 H         0.681997         1.975876         1.955362
 H         0.299891        -0.521393        -1.116978
 H        -0.983458        -0.335364         0.067762
 H        -0.145937         1.124776        -0.552260
 H         1.057223        -1.234314         2.630294
