19
Iteration:  1227
 C         2.693079        -1.687107        -0.521811
 C         2.512935        -0.633220         0.534154
 O         3.442588        -0.848968         1.604527
 C         3.510651         0.440942         0.906481
 C         2.754697         1.555027         1.538016
 C         1.475909         1.234139         1.580383
 C         1.115227        -0.105626         0.935149
 C         0.098741         0.065777        -0.286688
 O         0.344507        -0.956155         1.932298
 H         2.017253        -2.547415        -0.236894
 H         2.343353        -1.334022        -1.550650
 H         3.734440        -2.048502        -0.661974
 H         4.495351         0.608511         0.430947
 H         3.210182         2.543269         1.804953
 H         0.652436         1.636256         2.138064
 H         0.532244        -0.200057        -1.292655
 H        -0.611837        -0.842799        -0.234569
 H        -0.433202         1.133258        -0.241620
 H         1.090110        -1.371572         2.526252
