19
Iteration:  3340charge 0 multiplicity 1
 C         2.787319        -1.573374        -0.708734
 C         2.567765        -0.701411         0.493673
 O         3.522061        -0.704866         1.631916
 C         3.413691         0.462476         0.787077
 C         2.718015         1.542988         1.390808
 C         1.438473         1.156550         1.473613
 C         1.060256        -0.200181         1.021505
 C        -0.081709        -0.141696        -0.089378
 O         0.483250        -0.904930         2.208523
 H         3.871705        -1.609203        -1.007664
 H         2.312506        -2.609293        -0.719509
 H         2.321823        -0.959627        -1.600398
 H         4.266733         0.648541         0.170037
 H         3.074153         2.609897         1.490639
 H         0.527464         1.705812         1.730778
 H         0.196786         0.538821        -0.938104
 H        -0.228155        -1.148176        -0.537710
 H        -1.003701         0.273283         0.375990
 H         1.294723        -1.105879         2.677249
