19
Iteration:  2974
 C         2.659995        -1.484276        -0.702743
 C         2.548103        -0.655182         0.615805
 O         3.265729        -0.884843         1.927856
 C         3.467603         0.415599         0.809641
 C         2.639127         1.646306         1.204092
 C         1.380973         1.230418         1.458925
 C         1.133037        -0.157853         0.976894
 C         0.058303        -0.048678        -0.144877
 O         0.730990        -1.046540         2.015475
 H         2.581129        -0.726428        -1.549626
 H         3.610319        -1.991240        -0.773149
 H         1.811795        -2.119695        -0.903153
 H         4.436835         0.500208         0.359060
 H         3.068259         2.616548         1.323940
 H         0.483042         1.681033         1.920006
 H         0.383975         0.729562        -0.815895
 H        -0.115381        -1.032863        -0.610042
 H        -0.862578         0.257635         0.312837
 H         1.571655        -1.244071         2.541379
