19
Iteration:  4980charge 0 multiplicity 1
 C         2.610343        -1.833417        -0.387771
 C         2.542530        -0.679458         0.570778
 O         3.642745        -0.584178         1.546718
 C         3.400418         0.521727         0.654233
 C         2.693445         1.512831         1.411784
 C         1.445821         1.168981         1.670090
 C         1.071250        -0.185997         0.979808
 C         0.063805        -0.056388        -0.264145
 O         0.399376        -0.873315         1.977852
 H         3.478419        -1.886099        -0.997855
 H         2.753123        -2.713591         0.173604
 H         1.802936        -1.819600        -1.108801
 H         4.247930         0.788017        -0.024239
 H         3.295504         2.303398         1.911359
 H         0.776818         1.516778         2.426968
 H         0.646808         0.314092        -1.145426
 H        -0.262459        -1.071529        -0.546227
 H        -0.780718         0.676902         0.103043
 H         0.999365        -1.025041         2.690573
