19
Iteration:  4223charge 0 multiplicity 1
 C         2.625919        -1.598860        -0.676298
 C         2.487574        -0.607503         0.494247
 O         3.463948        -0.698865         1.706234
 C         3.424058         0.474846         0.775713
 C         2.664234         1.598260         1.354857
 C         1.367354         1.237854         1.372715
 C         1.094808        -0.161616         0.973993
 C         0.027895        -0.268752        -0.039953
 O         0.712201        -0.984740         2.142170
 H         2.444367        -0.974161        -1.552473
 H         3.576791        -2.048067        -0.601209
 H         1.854113        -2.312002        -0.708224
 H         4.364142         0.779378         0.210820
 H         3.131474         2.478561         1.718408
 H         0.621071         1.825050         1.888733
 H         0.019967         0.581004        -0.669452
 H        -0.006186        -1.259063        -0.510394
 H        -0.998401        -0.218055         0.358012
 H         1.440771        -0.872595         2.730628
