19
Iteration:  2732
 C         2.755251        -1.524954        -0.683460
 C         2.536974        -0.706956         0.538651
 O         3.286135        -0.902618         1.773728
 C         3.510831         0.350308         1.066599
 C         2.694495         1.536501         1.362469
 C         1.358572         1.329748         1.349541
 C         1.080749        -0.108981         0.946772
 C         0.021284        -0.098912        -0.118807
 O         0.640266        -0.907285         1.943604
 H         3.575596        -2.151544        -0.516193
 H         1.820817        -2.113467        -0.768716
 H         2.883173        -0.840255        -1.579217
 H         4.548123         0.522914         0.681748
 H         3.260197         2.433667         1.616295
 H         0.550718         1.975788         1.709544
 H         0.298218         0.668936        -0.864933
 H        -0.204188        -0.975421        -0.728380
 H        -0.871083         0.286241         0.444452
 H         1.377454        -1.043729         2.490238
