19
Iteration:  3181charge 0 multiplicity 1
 C         2.540000        -1.746294        -0.603870
 C         2.460692        -0.669773         0.510927
 O         3.624585        -0.625819         1.634082
 C         3.388617         0.474585         0.755858
 C         2.641751         1.596307         1.482675
 C         1.362722         1.278886         1.586243
 C         1.083388        -0.162398         0.976903
 C         0.161680        -0.141654        -0.209635
 O         0.575048        -0.978509         2.050716
 H         3.129188        -1.455393        -1.604201
 H         2.920859        -2.561593        -0.068739
 H         1.557174        -1.944554        -0.983055
 H         4.251514         0.599874         0.115720
 H         3.247675         2.358949         2.026771
 H         0.573886         1.698622         2.208790
 H         0.492319         0.677370        -0.930683
 H        -0.040097        -0.909236        -0.954599
 H        -0.799895         0.157813         0.165794
 H         1.374155        -1.369089         2.580579
