19
Iteration:   452
 C         2.923900        -1.748899        -0.587143
 C         2.583655        -0.704051         0.480024
 O         3.244596        -0.851350         1.724050
 C         3.580096         0.335349         0.909560
 C         2.813111         1.479720         1.479429
 C         1.513198         1.356176         1.442933
 C         1.016305         0.011516         0.887073
 C        -0.181714         0.038919        -0.135128
 O         0.455642        -0.905414         1.913099
 H         2.113380        -2.456003        -0.711261
 H         3.154180        -1.280399        -1.530265
 H         3.823145        -2.229896        -0.264666
 H         4.552247         0.347375         0.447641
 H         3.239968         2.318585         2.067217
 H         0.772629         1.980361         1.922168
 H        -0.817599        -0.774357         0.184839
 H        -0.751188         0.925452        -0.170041
 H         0.219268        -0.055456        -1.123603
 H         1.062591        -0.760414         2.757060
