19
Iteration:  3595
 C         2.795250        -1.695685        -0.564349
 C         2.548698        -0.690780         0.480805
 O         3.458514        -0.764130         1.532845
 C         3.404570         0.452166         0.787816
 C         2.693904         1.550357         1.436755
 C         1.375903         1.348125         1.539283
 C         1.064716        -0.155513         0.999415
 C        -0.066263        -0.091422        -0.008815
 O         0.595919        -0.989898         1.982017
 H         3.295215        -1.099302        -1.443841
 H         3.410235        -2.594286        -0.214764
 H         1.846591        -2.014245        -1.002978
 H         4.257482         0.749974         0.209126
 H         3.118014         2.465363         1.828105
 H         0.586626         1.972393         1.955391
 H         0.146735         0.678202        -0.720770
 H        -0.109129        -1.097661        -0.459858
 H        -1.050971         0.285577         0.419865
 H         1.390578        -0.760719         2.636241
