19
Iteration:  2338
 C         2.802394        -1.782866        -0.486159
 C         2.453208        -0.643665         0.562499
 O         3.408987        -0.843267         1.659364
 C         3.401631         0.375482         0.800043
 C         2.728619         1.545258         1.455915
 C         1.392159         1.287478         1.611798
 C         1.135043        -0.087292         1.001261
 C         0.245153         0.134454        -0.181473
 O         0.344957        -0.956308         1.790879
 H         2.859415        -2.743652         0.112305
 H         1.975980        -1.829570        -1.228915
 H         3.718159        -1.483935        -0.885061
 H         4.403415         0.373374         0.299384
 H         3.265463         2.344988         1.942855
 H         0.668057         2.040014         1.957117
 H         0.601421         0.676486        -1.045375
 H        -0.238102        -0.662135        -0.749322
 H        -0.626653         0.635414         0.218678
 H         0.965512        -1.372572         2.502717
