19
Iteration:  1770
 C         2.558407        -1.758476        -0.483057
 C         2.489932        -0.699757         0.629582
 O         3.282680        -0.733671         1.792711
 C         3.533315         0.395941         0.847645
 C         2.763458         1.620313         1.373243
 C         1.485174         1.216402         1.574690
 C         1.090786        -0.171557         0.973401
 C         0.288266         0.214603        -0.212559
 O         0.478626        -1.082521         1.722190
 H         2.140313        -2.676664        -0.159738
 H         1.815213        -1.518086        -1.180593
 H         3.511188        -1.882316        -1.147805
 H         4.519469         0.413323         0.314177
 H         2.954785         2.666437         1.707306
 H         0.752031         1.690532         2.200916
 H         0.898670         0.693536        -0.967192
 H        -0.213884        -0.650128        -0.553038
 H        -0.547036         0.905673         0.076477
 H         1.035805        -1.264509         2.533650
