19
Iteration:  2085charge 0 multiplicity 1
 C         2.770368        -1.666618        -0.523786
 C         2.504674        -0.595364         0.447078
 O         3.433310        -0.845046         1.640160
 C         3.551215         0.375423         0.913654
 C         2.751993         1.484888         1.549332
 C         1.402069         1.216977         1.553670
 C         1.103522        -0.119265         0.902271
 C         0.053852         0.013447        -0.279509
 O         0.389905        -0.889293         1.953356
 H         2.077823        -2.455493        -0.352482
 H         2.461982        -1.351264        -1.490739
 H         3.842952        -1.982955        -0.456833
 H         4.477601         0.393705         0.378940
 H         3.103412         2.352487         2.097011
 H         0.631355         1.810958         2.046661
 H         0.365193         0.270108        -1.289261
 H        -0.582258        -0.840442        -0.459820
 H        -0.614900         0.856852        -0.008339
 H         0.974393        -0.688735         2.782225
