19
Iteration:  4378
 C         2.744365        -1.753857        -0.494196
 C         2.515705        -0.613375         0.462713
 O         3.449065        -0.530659         1.607830
 C         3.464607         0.567377         0.597239
 C         2.664755         1.612127         1.244154
 C         1.480936         1.105766         1.642115
 C         1.052699        -0.213252         1.031778
 C         0.009633        -0.037616         0.027605
 O         0.546779        -1.108594         2.020515
 H         2.564971        -1.468442        -1.535968
 H         3.705467        -2.271545        -0.489770
 H         2.077741        -2.603996        -0.341649
 H         4.313507         0.632822        -0.013894
 H         2.889280         2.653911         1.374825
 H         0.810177         1.781913         2.157524
 H         0.368187         0.411628        -0.935504
 H        -0.481705        -1.006927        -0.214172
 H        -0.911806         0.359005         0.493614
 H         1.104259        -1.128225         2.810799
