19
Iteration:  3242
 C         2.931621        -1.668506        -0.649319
 C         2.558673        -0.678450         0.495972
 O         3.415174        -0.732905         1.616522
 C         3.430170         0.463781         0.744051
 C         2.662024         1.543877         1.398276
 C         1.363898         1.286452         1.488967
 C         1.076447        -0.151924         0.980759
 C        -0.169938        -0.037982         0.039780
 O         0.615373        -1.041512         2.034320
 H         3.978808        -1.720418        -0.793367
 H         2.525556        -2.726207        -0.521618
 H         2.337641        -1.352629        -1.551641
 H         4.379876         0.751890         0.319009
 H         3.083793         2.506966         1.729972
 H         0.546218         1.896185         1.797287
 H         0.118380         0.067282        -1.026153
 H        -0.873936        -0.878236         0.244352
 H        -0.707433         0.933251         0.281904
 H         1.451272        -1.045773         2.622934
