19
Iteration:  4114
 C         2.659202        -1.721939        -0.527987
 C         2.523060        -0.675922         0.552714
 O         3.383663        -0.720995         1.669394
 C         3.382469         0.537604         0.705986
 C         2.664318         1.710535         1.227633
 C         1.385569         1.280116         1.568926
 C         1.173446        -0.152165         1.044888
 C         0.008229        -0.082814         0.028834
 O         0.677958        -1.123135         1.910185
 H         1.716716        -2.076091        -1.225283
 H         3.400638        -1.302507        -1.197318
 H         3.120682        -2.513987         0.080833
 H         4.347930         0.753349         0.191067
 H         2.941586         2.808487         1.266545
 H         0.649291         1.994924         2.019017
 H         0.282141         0.518879        -0.864106
 H         0.017522        -1.182901        -0.291091
 H        -0.915445         0.226181         0.647510
 H         1.460326        -1.333878         2.385204
