19
Iteration:  1017
 C         2.875021        -1.794815        -0.720294
 C         2.509126        -0.642364         0.479877
 O         3.314660        -0.791249         1.728333
 C         3.500925         0.339395         0.992829
 C         2.720942         1.481504         1.447518
 C         1.425576         1.272563         1.518136
 C         1.090045        -0.005534         0.891666
 C         0.010811         0.106783        -0.057837
 O         0.480680        -0.951468         1.849750
 H         2.126605        -2.630204        -0.676313
 H         2.821581        -1.290616        -1.682029
 H         3.927551        -2.250199        -0.517940
 H         4.485130         0.496688         0.621271
 H         3.183475         2.305158         2.062509
 H         0.598501         1.779678         1.995544
 H         0.193800        -0.166820        -1.195664
 H        -0.814385        -0.667087         0.195556
 H        -0.196486         1.210346        -0.004771
 H         0.916752        -0.861226         2.823015
