19
Iteration:   940
 C         2.498853        -1.822242        -0.519960
 C         2.507846        -0.651864         0.529921
 O         3.400871        -0.772799         1.626494
 C         3.521281         0.456024         0.911938
 C         2.766288         1.556260         1.625195
 C         1.470227         1.230240         1.552960
 C         1.171041        -0.132926         0.900690
 C         0.184189         0.143417        -0.243842
 O         0.455772        -1.010912         1.832964
 H         1.887773        -2.658292        -0.135564
 H         2.239397        -1.478956        -1.497472
 H         3.620440        -2.085537        -0.686256
 H         4.474956         0.585743         0.405694
 H         3.069510         2.534059         1.930830
 H         0.673738         1.797322         1.959022
 H         0.537669         1.026552        -0.932688
 H         0.054282        -0.848290        -0.833334
 H        -0.854816         0.211257         0.172336
 H         0.718098        -0.762173         2.678725
