19
Iteration:   884charge 0 multiplicity 1
 C         2.726501        -1.843268        -0.539414
 C         2.510070        -0.681292         0.436798
 O         3.173073        -0.752726         1.773306
 C         3.494889         0.406149         0.913967
 C         2.828089         1.586967         1.448854
 C         1.512931         1.295109         1.519030
 C         1.164880        -0.137914         0.873857
 C         0.110066         0.181930        -0.113038
 O         0.435606        -1.003521         1.833299
 H         2.165479        -2.740941        -0.258469
 H         2.323192        -1.674819        -1.538584
 H         3.788818        -2.150446        -0.615277
 H         4.505204         0.472412         0.408180
 H         3.433403         2.353011         1.947861
 H         0.795395         2.024739         2.012243
 H        -0.516431         1.045149         0.290100
 H         0.573676         0.427128        -1.113517
 H        -0.598332        -0.698271        -0.138761
 H         1.173372        -1.515053         2.315797
