19
Iteration:  1511charge 0 multiplicity 1
 C         2.736351        -1.653305        -0.581401
 C         2.528120        -0.616136         0.505939
 O         3.178121        -0.931185         1.730828
 C         3.539381         0.374190         1.011461
 C         2.856087         1.531953         1.420991
 C         1.539215         1.323292         1.452846
 C         1.111700        -0.076108         0.925449
 C         0.032296         0.070489        -0.120261
 O         0.455951        -1.003163         1.825483
 H         1.949462        -2.432543        -0.378176
 H         2.687423        -1.258292        -1.594571
 H         3.753742        -2.107135        -0.199134
 H         4.510551         0.357587         0.556678
 H         3.354535         2.482772         1.661960
 H         0.870218         2.105120         1.880335
 H         0.480880         0.707295        -0.934449
 H        -0.238397        -0.909857        -0.538881
 H        -0.993835         0.548881         0.132592
 H         0.917069        -0.871905         2.628189
