19
Iteration:  1025
 C         2.822785        -1.756839        -0.645275
 C         2.560112        -0.635321         0.442702
 O         3.241485        -0.848854         1.711245
 C         3.538532         0.376191         1.021812
 C         2.727354         1.530049         1.482031
 C         1.417878         1.225456         1.541500
 C         1.149383        -0.070028         0.854912
 C        -0.066796         0.093840        -0.094728
 O         0.575729        -0.922388         1.826365
 H         2.022588        -2.467265        -0.591526
 H         2.730905        -1.334214        -1.606132
 H         3.827929        -2.292292        -0.496022
 H         4.592774         0.459536         0.693338
 H         3.142168         2.371166         2.015844
 H         0.610456         1.846569         1.859263
 H         0.159825        -0.100555        -1.155885
 H        -0.836453        -0.568667         0.279040
 H        -0.529019         1.050964        -0.088859
 H         0.973953        -0.656038         2.746153
