19
Iteration:  1383charge 0 multiplicity 1
 C         2.815759        -1.713843        -0.592397
 C         2.553540        -0.751100         0.587563
 O         3.430449        -0.798206         1.673966
 C         3.536550         0.374683         0.825586
 C         2.767476         1.489405         1.430478
 C         1.410049         1.214340         1.549919
 C         1.054674        -0.123637         1.000584
 C         0.089359         0.179814        -0.237327
 O         0.256998        -0.904255         1.969372
 H         2.254383        -2.654535        -0.596248
 H         2.608587        -1.254553        -1.564597
 H         3.928455        -1.832855        -0.573231
 H         4.473539         0.500729         0.253707
 H         3.327267         2.302679         1.939209
 H         0.628412         1.818870         2.140843
 H         0.495908         0.548315        -1.203495
 H        -0.295776        -0.768762        -0.531178
 H        -0.626039         0.981207         0.109131
 H         1.028870        -1.307318         2.462161
