19
Iteration:   125
 C         2.591722        -1.678895        -0.593988
 C         2.582333        -0.703146         0.636482
 O         3.576061        -0.783026         1.695780
 C         3.524140         0.382163         0.833996
 C         2.717908         1.526723         1.382129
 C         1.462529         1.201409         1.557908
 C         1.166358        -0.149105         0.988420
 C         0.168363        -0.010743        -0.226266
 O         0.212634        -0.810685         1.895571
 H         2.290898        -2.681324        -0.209896
 H         1.982582        -1.167751        -1.406607
 H         3.610651        -1.797510        -1.039792
 H         4.452262         0.525896         0.187111
 H         3.172007         2.279528         2.044474
 H         0.724568         1.678317         2.207287
 H        -0.106732        -1.071197        -0.445391
 H        -0.798083         0.377983         0.194928
 H         0.403331         0.583995        -1.157200
 H         0.652453        -0.913814         2.716491
