19
Iteration:  1922
 C         2.774224        -1.525703        -0.754989
 C         2.590939        -0.662938         0.500993
 O         3.206503        -0.934563         1.894072
 C         3.521880         0.314574         1.012026
 C         2.769952         1.519166         1.397690
 C         1.476316         1.221368         1.400047
 C         1.073932        -0.145548         0.917666
 C         0.031396         0.015260        -0.178685
 O         0.473575        -0.867045         1.966666
 H         2.316205        -2.530488        -0.883013
 H         2.447378        -0.953884        -1.625917
 H         3.956070        -1.624349        -0.886701
 H         4.598982         0.326222         0.726303
 H         3.233552         2.487423         1.572849
 H         0.704855         1.936831         1.743954
 H         0.434497         0.452880        -1.101977
 H        -0.386354        -0.958245        -0.380710
 H        -0.719074         0.741034         0.331287
 H         1.220637        -0.762457         2.702622
