19
Iteration:  4632
 C         2.789875        -1.781352        -0.519256
 C         2.435269        -0.681122         0.575405
 O         3.600722        -0.657425         1.563666
 C         3.305407         0.460112         0.581404
 C         2.706680         1.601164         1.305117
 C         1.402853         1.278163         1.649826
 C         1.002519        -0.156786         1.099741
 C         0.087967         0.070173        -0.080540
 O         0.476427        -1.054575         2.009086
 H         3.427319        -2.581378        -0.107343
 H         2.043843        -2.498855        -0.836793
 H         3.394747        -1.482921        -1.381180
 H         4.132857         0.561329        -0.141110
 H         3.159035         2.546298         1.622536
 H         0.536931         1.808621         2.116901
 H         0.718039         0.184837        -0.962403
 H        -0.337613        -0.944593        -0.260268
 H        -0.694498         0.714794         0.238798
 H         1.177419        -1.261112         2.704058
