19
Iteration:  4617
 C         2.723186        -1.767451        -0.491044
 C         2.477346        -0.714964         0.499587
 O         3.578763        -0.605341         1.564190
 C         3.405679         0.465175         0.706221
 C         2.683230         1.579915         1.350428
 C         1.428293         1.183457         1.555787
 C         1.158028        -0.174883         1.027066
 C         0.000599        -0.027476        -0.116445
 O         0.443591        -1.007216         2.056850
 H         3.333546        -2.523583         0.080165
 H         1.740663        -1.970377        -0.979180
 H         3.263796        -1.207060        -1.307080
 H         4.138047         0.715274        -0.101172
 H         3.200393         2.520336         1.521143
 H         0.797402         1.775315         2.171552
 H         0.390753         0.635920        -0.918352
 H        -0.435376        -0.991379        -0.427060
 H        -0.884900         0.564605         0.366593
 H         1.146265        -1.112245         2.774556
