19
Iteration:  3044charge 0 multiplicity 1
 C         2.703599        -1.614890        -0.599250
 C         2.467702        -0.529040         0.419901
 O         3.396438        -0.775433         1.575629
 C         3.492140         0.421138         0.777965
 C         2.696325         1.501399         1.668200
 C         1.413633         1.170186         1.475603
 C         1.091481        -0.159253         0.877609
 C         0.017491        -0.269325        -0.217303
 O         0.573383        -0.709372         2.098162
 H         2.229660        -1.731339        -1.546106
 H         3.786444        -1.456714        -0.803180
 H         2.577918        -2.615450        -0.127890
 H         4.458189         0.522606         0.206411
 H         3.034010         2.083404         2.544054
 H         0.665726         1.603613         2.123597
 H         0.456278         0.306765        -1.069183
 H        -0.178449        -1.362996        -0.384658
 H        -0.947694         0.178199         0.211588
 H         1.370778        -0.868424         2.724869
