19
Iteration:  4027charge 0 multiplicity 1
 C         2.691151        -1.594476        -0.559544
 C         2.488369        -0.612486         0.533080
 O         3.434599        -0.674349         1.572180
 C         3.481844         0.480674         0.750654
 C         2.710307         1.637771         1.333501
 C         1.425873         1.221272         1.543789
 C         1.059302        -0.164817         0.990029
 C         0.102733        -0.143041        -0.107511
 O         0.521543        -1.090616         2.115532
 H         2.486377        -2.501468         0.128805
 H         1.971991        -1.647628        -1.339630
 H         3.669008        -1.610812        -0.997630
 H         4.297981         0.621548         0.087533
 H         3.024696         2.663860         1.588484
 H         0.649439         1.901933         1.794714
 H         0.330937         0.197856        -1.037826
 H        -0.091335        -1.147944        -0.446773
 H        -0.894595         0.198118         0.197235
 H         1.305479        -1.199329         2.715181
