19
Iteration:  2962charge 0 multiplicity 1
 C         2.652250        -1.553499        -0.685290
 C         2.532591        -0.717699         0.595388
 O         3.328842        -0.861182         1.831036
 C         3.384643         0.510487         0.840079
 C         2.666975         1.686874         1.180736
 C         1.427767         1.303253         1.592607
 C         1.102875        -0.200433         1.001778
 C         0.094918        -0.122363        -0.171200
 O         0.636762        -1.030289         2.006634
 H         2.774388        -0.766381        -1.478274
 H         3.632811        -2.123717        -0.774458
 H         1.931011        -2.379549        -0.862859
 H         4.350929         0.465016         0.345373
 H         3.160971         2.508979         1.660440
 H         0.808295         2.117290         2.068742
 H         0.365202         0.742519        -0.739268
 H         0.067795        -0.838653        -0.991355
 H        -0.913762         0.083629         0.196763
 H         1.584675        -1.298736         2.432537
