19
Iteration:   124
 C         2.597742        -1.683313        -0.587470
 C         2.577472        -0.708049         0.634787
 O         3.583985        -0.781630         1.687620
 C         3.511325         0.385174         0.832768
 C         2.717564         1.516190         1.383170
 C         1.469633         1.201213         1.558866
 C         1.152946        -0.147797         0.994365
 C         0.173980        -0.004461        -0.227017
 O         0.210255        -0.807208         1.891618
 H         2.294138        -2.691717        -0.239437
 H         2.003757        -1.208249        -1.400455
 H         3.650306        -1.774735        -1.002124
 H         4.433464         0.544424         0.185245
 H         3.180828         2.305849         2.039268
 H         0.694610         1.671955         2.196704
 H        -0.107616        -1.054704        -0.462316
 H        -0.783813         0.384149         0.197305
 H         0.401120         0.596819        -1.126752
 H         0.680353        -0.924427         2.767675
