19
Iteration:   723
 C         2.657299        -1.603632        -0.541353
 C         2.580244        -0.695784         0.615985
 O         3.278879        -0.915848         1.863909
 C         3.573406         0.281602         0.891561
 C         2.806426         1.552538         1.309612
 C         1.534501         1.295839         1.505765
 C         1.088574        -0.076727         0.943257
 C         0.097052         0.037948        -0.237336
 O         0.382769        -0.907207         1.844516
 H         2.030891        -2.517392        -0.320822
 H         2.070039        -1.122958        -1.323505
 H         3.740398        -1.903960        -0.817310
 H         4.585043         0.395534         0.398148
 H         3.227915         2.553596         1.444987
 H         0.829657         2.088794         1.877675
 H         0.399595        -0.479151        -1.177694
 H        -0.853447        -0.359935         0.157351
 H        -0.063094         1.100815        -0.479085
 H         0.954221        -0.962552         2.559933
