19
Iteration:   311
 C         2.770392        -1.852225        -0.326136
 C         2.515091        -0.617030         0.398817
 O         3.337888        -0.898997         1.667502
 C         3.547221         0.297977         0.837826
 C         2.761782         1.465851         1.474728
 C         1.479420         1.288597         1.481213
 C         1.038881         0.049857         0.908299
 C        -0.046125         0.227979        -0.187430
 O         0.517055        -0.920140         1.858347
 H         2.600402        -2.672292         0.413534
 H         2.053247        -2.016567        -1.190059
 H         3.752652        -1.989803        -0.734417
 H         4.450149         0.488099         0.297675
 H         3.406910         2.202653         1.992488
 H         0.716732         1.880894         2.052849
 H        -0.657565        -0.669897        -0.348117
 H        -0.833505         0.942239         0.143554
 H         0.307234         0.848214        -1.055801
 H         1.284065        -1.107770         2.456537
