19
Iteration:   499
 C         2.729288        -1.475868        -0.664401
 C         2.490107        -0.693546         0.578841
 O         3.148233        -1.074852         1.863245
 C         3.563505         0.288454         1.000421
 C         2.774359         1.470890         1.351235
 C         1.445989         1.352836         1.281354
 C         1.026063        -0.068484         0.917398
 C         0.071935        -0.037685        -0.282290
 O         0.621686        -0.796264         2.079843
 H         2.253291        -2.475776        -0.660496
 H         2.159110        -0.942312        -1.415063
 H         3.812709        -1.502110        -1.059848
 H         4.679977         0.397004         0.920530
 H         3.373461         2.303094         1.694644
 H         0.745317         2.042336         1.728605
 H        -0.056997        -1.093364        -0.635491
 H        -0.951674         0.343414         0.035062
 H         0.470117         0.708621        -1.003542
 H         1.532551        -0.759200         2.624007
