19
Iteration:   944
 C         2.494918        -1.837989        -0.568925
 C         2.521891        -0.681580         0.556055
 O         3.389620        -0.765233         1.634716
 C         3.497918         0.496030         0.916237
 C         2.792113         1.557036         1.623885
 C         1.472975         1.226504         1.567587
 C         1.166310        -0.135790         0.919971
 C         0.226644         0.127597        -0.258960
 O         0.427862        -1.015064         1.841170
 H         1.916249        -2.728714        -0.232589
 H         2.185097        -1.368881        -1.550080
 H         3.523644        -2.080964        -0.728375
 H         4.397600         0.691860         0.351391
 H         3.125514         2.588852         1.888921
 H         0.617749         1.872717         1.882716
 H         0.540015         0.857564        -1.016779
 H         0.033363        -0.841445        -0.740698
 H        -0.757948         0.358611         0.198499
 H         0.829302        -0.759172         2.760061
