19
Iteration:  3233charge 0 multiplicity 1
 C         2.871531        -1.682976        -0.711264
 C         2.546563        -0.661622         0.404458
 O         3.463065        -0.716976         1.642191
 C         3.443767         0.473471         0.816783
 C         2.680979         1.598128         1.364779
 C         1.369391         1.280716         1.470692
 C         1.011961        -0.153452         1.027520
 C        -0.079312        -0.021469         0.042373
 O         0.553868        -1.093464         2.068219
 H         3.934587        -1.535671        -0.915391
 H         2.751025        -2.644541        -0.217291
 H         2.431280        -1.489951        -1.686697
 H         4.354159         0.547494         0.258119
 H         3.205921         2.537735         1.705104
 H         0.731268         2.007191         1.915918
 H         0.106061        -0.068571        -1.091525
 H        -0.721514        -0.963925         0.090200
 H        -0.838644         0.786573         0.217134
 H         1.197635        -1.072496         2.872334
