19
Iteration:  1091
 C         2.617377        -1.574090        -0.665186
 C         2.577618        -0.676100         0.551858
 O         3.312484        -0.929051         1.659486
 C         3.503658         0.405896         0.945918
 C         2.787051         1.565491         1.467921
 C         1.469366         1.186821         1.541452
 C         1.141019        -0.162616         0.957337
 C         0.186949        -0.064271        -0.303597
 O         0.392335        -0.796888         2.020348
 H         2.040178        -2.455856        -0.443549
 H         2.189687        -1.052809        -1.463626
 H         3.692333        -1.891989        -0.932118
 H         4.445331         0.511062         0.430848
 H         3.179608         2.488649         2.027837
 H         0.666921         1.814490         1.944866
 H         0.452337         0.738711        -1.040051
 H         0.167890        -1.055409        -0.786101
 H        -0.807071         0.087964        -0.006417
 H         0.857746        -0.615018         2.943951
