19
Iteration:   874charge 0 multiplicity 1
 C         2.698611        -1.749392        -0.574961
 C         2.590283        -0.656795         0.487618
 O         3.210213        -0.830870         1.792225
 C         3.521696         0.349757         0.879809
 C         2.774809         1.545230         1.341503
 C         1.496360         1.257602         1.510660
 C         1.128744        -0.082757         0.943636
 C         0.131444         0.161687        -0.129934
 O         0.405846        -0.995880         1.867427
 H         2.183552        -2.622715        -0.134954
 H         2.322046        -1.410202        -1.537327
 H         3.798800        -2.038222        -0.684704
 H         4.616093         0.378832         0.713788
 H         3.195431         2.481687         1.695313
 H         0.804926         1.954186         2.041014
 H        -0.707724         0.882837         0.214929
 H         0.651954         0.727268        -0.983427
 H        -0.328020        -0.796064        -0.557752
 H         1.054860        -1.105926         2.674465
