19
Iteration:  3776
 C         2.635934        -1.651412        -0.661283
 C         2.564658        -0.668328         0.526119
 O         3.515938        -0.715081         1.649547
 C         3.359924         0.524667         0.703433
 C         2.556710         1.648924         1.223295
 C         1.400503         1.159746         1.621036
 C         1.106655        -0.216151         1.083230
 C         0.113664        -0.075346        -0.052133
 O         0.590152        -0.989916         2.076470
 H         1.701748        -2.199240        -0.577201
 H         2.962617        -1.097767        -1.475564
 H         3.489123        -2.361479        -0.600855
 H         4.343649         0.433678         0.214029
 H         2.870014         2.609159         1.479184
 H         0.660120         1.801504         2.111928
 H         0.323275         0.625139        -0.902796
 H         0.180377        -1.054852        -0.554694
 H        -0.932615         0.149786         0.172464
 H         1.411252        -1.156735         2.695800
