19
Iteration:  3047
 C         2.699233        -1.612492        -0.622979
 C         2.454054        -0.562745         0.405860
 O         3.398347        -0.771190         1.581757
 C         3.483006         0.434078         0.796535
 C         2.718494         1.514767         1.665635
 C         1.406888         1.178497         1.453261
 C         1.083213        -0.171700         0.873213
 C         0.046622        -0.243888        -0.243583
 O         0.568240        -0.737156         2.137607
 H         2.186726        -1.749394        -1.530814
 H         3.809063        -1.497832        -0.905566
 H         2.525249        -2.587927        -0.028459
 H         4.429395         0.612998         0.267720
 H         3.055234         2.125877         2.485530
 H         0.680213         1.637700         2.162403
 H         0.477816         0.369040        -1.023768
 H        -0.146915        -1.336464        -0.359032
 H        -0.958481         0.092465         0.188307
 H         1.337000        -0.827374         2.790927
