19
Iteration:  4402
 C         2.765232        -1.806836        -0.467242
 C         2.515774        -0.664973         0.472701
 O         3.472250        -0.609232         1.600087
 C         3.393181         0.520457         0.673843
 C         2.677482         1.715738         1.263579
 C         1.384701         1.287221         1.506371
 C         1.112452        -0.148568         1.034028
 C        -0.091160         0.011945         0.096910
 O         0.670750        -1.180253         1.936490
 H         2.933932        -1.525810        -1.492132
 H         3.528233        -2.517394        -0.166427
 H         1.947373        -2.503759        -0.506612
 H         4.284433         0.518159         0.066148
 H         3.232160         2.642417         1.555134
 H         0.604468         1.716704         2.180757
 H        -0.000319         0.601438        -0.850292
 H        -0.609482        -0.931872        -0.190181
 H        -0.973887         0.219938         0.709487
 H         1.243066        -1.427963         2.637005
