19
Iteration:  2078charge 0 multiplicity 1
 C         2.839136        -1.717684        -0.536138
 C         2.466087        -0.595993         0.428228
 O         3.421636        -0.765046         1.659220
 C         3.543311         0.344672         0.919611
 C         2.711466         1.486556         1.485559
 C         1.452730         1.155417         1.603504
 C         1.106260        -0.131360         0.934380
 C         0.023211         0.078537        -0.267683
 O         0.382767        -0.891505         1.926362
 H         2.043592        -2.546418        -0.360847
 H         2.569953        -1.296206        -1.573796
 H         3.787377        -2.153738        -0.563398
 H         4.441455         0.533566         0.288779
 H         3.152852         2.364292         2.036040
 H         0.799724         1.789190         2.188447
 H         0.731502         0.193015        -1.133763
 H        -0.684412        -0.785783        -0.333521
 H        -0.593347         0.912141        -0.091756
 H         0.733741        -0.814968         2.860505
