19
Iteration:   840
 C         2.605427        -1.520289        -0.590044
 C         2.449704        -0.750871         0.644826
 O         3.490104        -0.940366         1.753727
 C         3.415435         0.277476         0.861132
 C         2.823720         1.472701         1.451697
 C         1.454201         1.357013         1.405291
 C         1.063099        -0.069332         0.997225
 C         0.237284        -0.001265        -0.327915
 O         0.375282        -0.891339         2.011211
 H         2.001130        -2.441286        -0.614691
 H         2.315924        -0.967899        -1.515561
 H         3.679677        -1.790586        -0.667607
 H         4.366853         0.356642         0.263102
 H         3.353173         2.375693         1.847345
 H         0.679881         2.146229         1.705974
 H        -0.835152        -0.284412        -0.028300
 H         0.248470         1.083893        -0.668985
 H         0.560845        -0.623049        -1.226973
 H         0.755759        -0.611112         2.867855
