19
Iteration:   795
 C         2.755776        -1.742730        -0.567083
 C         2.556225        -0.584462         0.456350
 O         3.284643        -0.972567         1.655425
 C         3.544261         0.331282         0.958251
 C         2.822747         1.518495         1.564843
 C         1.455981         1.282361         1.567193
 C         1.103781        -0.018552         0.824318
 C        -0.072011        -0.130735        -0.276481
 O         0.482610        -0.634940         1.974289
 H         1.795796        -2.224683        -0.763946
 H         3.137810        -1.302248        -1.539211
 H         3.478923        -2.359102        -0.162239
 H         4.516294         0.374666         0.445364
 H         3.365303         2.252230         2.151702
 H         0.674477         1.721218         2.165823
 H        -0.372122        -1.216091        -0.270053
 H        -0.965209         0.514339        -0.137293
 H         0.375472         0.121525        -1.265365
 H         1.272748        -0.888454         2.468847
