19
Iteration:   344charge 0 multiplicity 1
 C         2.726451        -1.942982        -0.387456
 C         2.492653        -0.734950         0.550463
 O         3.355329        -0.709890         1.719678
 C         3.481570         0.385849         0.777337
 C         2.949119         1.655882         1.365781
 C         1.626396         1.212386         1.589816
 C         1.074526        -0.078712         0.957287
 C         0.014518         0.242602        -0.132548
 O         0.298443        -0.990990         1.728537
 H         2.347971        -2.911466         0.036106
 H         2.194809        -1.770857        -1.371069
 H         3.787648        -2.050723        -0.564740
 H         4.312495         0.366163         0.132080
 H         3.395076         2.585595         1.695450
 H         0.786551         1.695731         2.132886
 H        -0.139262        -0.578095        -0.861599
 H        -0.813145         0.381718         0.558527
 H         0.229603         1.155003        -0.743846
 H         0.614043        -1.403454         2.657591
