19
Iteration:  2565charge 0 multiplicity 1
 C         2.822948        -1.791301        -0.465192
 C         2.537216        -0.752549         0.559400
 O         3.357801        -0.832902         1.671351
 C         3.446152         0.353666         0.840227
 C         2.671204         1.595868         1.414571
 C         1.395926         1.309023         1.581792
 C         1.085221        -0.071591         0.951835
 C         0.147897         0.243281        -0.119983
 O         0.432309        -1.056501         1.796110
 H         2.065818        -1.957158        -1.320372
 H         3.684754        -1.448985        -1.073541
 H         3.107575        -2.727985        -0.060872
 H         4.408743         0.689566         0.530731
 H         3.151324         2.574382         1.605427
 H         0.641296         1.984201         1.867418
 H         0.505569         0.678673        -1.077976
 H        -0.249536        -0.736862        -0.489639
 H        -0.788972         0.628454         0.301619
 H         1.107417        -0.965743         2.582955
