19
Iteration:  4871charge 0 multiplicity 1
 C         2.844400        -1.690576        -0.553190
 C         2.551693        -0.596319         0.450397
 O         3.463551        -0.857271         1.598329
 C         3.476052         0.432105         0.835626
 C         2.646800         1.553725         1.259783
 C         1.368748         1.286658         1.416826
 C         1.016423        -0.092277         1.050745
 C         0.003872        -0.082754         0.017586
 O         0.498269        -0.902586         2.078905
 H         3.687612        -2.205773        -0.152001
 H         1.998444        -2.333164        -0.655573
 H         2.982323        -1.328188        -1.581800
 H         4.450022         0.691144         0.432142
 H         3.237240         2.502777         1.390428
 H         0.697438         2.020727         1.858725
 H         0.216313         0.529369        -0.822525
 H        -0.264520        -1.041844        -0.400793
 H        -0.983927         0.115186         0.370500
 H         1.253654        -1.384350         2.491489
