19
Iteration:  4576
 C         2.579615        -1.712744        -0.586204
 C         2.449393        -0.606389         0.518780
 O         3.421149        -0.738398         1.584777
 C         3.458934         0.446979         0.846326
 C         2.698415         1.641609         1.388759
 C         1.382026         1.385372         1.514645
 C         1.109288        -0.141492         0.943435
 C         0.067885        -0.227568        -0.097723
 O         0.711458        -0.990230         2.066975
 H         2.339623        -2.707294        -0.126870
 H         1.923229        -1.560938        -1.471269
 H         3.620993        -1.817461        -0.978301
 H         4.401979         0.610102         0.239937
 H         3.275589         2.547147         1.510465
 H         0.538969         1.978642         1.850987
 H        -0.142999         0.618943        -0.745331
 H        -0.037779        -1.206812        -0.619654
 H        -0.873618        -0.053624         0.428367
 H         1.453187        -1.043077         2.648000
