19
Iteration:  1598
 C         2.727580        -1.636980        -0.613085
 C         2.538271        -0.551220         0.404263
 O         3.244869        -0.992685         1.660410
 C         3.525822         0.287118         1.055679
 C         2.815729         1.444080         1.741588
 C         1.460696         1.450550         1.457383
 C         1.106280         0.005440         0.735303
 C        -0.012216        -0.179194        -0.203695
 O         0.506294        -0.755079         1.911340
 H         2.282817        -2.591505        -0.370630
 H         2.634512        -1.387784        -1.645088
 H         3.835196        -1.995391        -0.631466
 H         4.418220         0.397800         0.429818
 H         3.431118         2.090709         2.316152
 H         0.696058         2.130415         1.765422
 H         0.251297         0.059439        -1.259755
 H        -0.282833        -1.224008        -0.181445
 H        -0.854120         0.406930         0.301078
 H         1.177424        -0.622701         2.693284
