19
Iteration:  4363
 C         2.676179        -1.697245        -0.497957
 C         2.519425        -0.624788         0.533814
 O         3.549645        -0.641341         1.528352
 C         3.390171         0.478733         0.639095
 C         2.603305         1.660989         1.200929
 C         1.374557         1.213435         1.669850
 C         1.154653        -0.191479         1.081707
 C         0.021363        -0.084193        -0.122057
 O         0.550876        -1.085503         2.070604
 H         2.199396        -1.392797        -1.472099
 H         3.800371        -1.886041        -0.483967
 H         2.247403        -2.711809        -0.073781
 H         4.293885         0.756735        -0.005130
 H         3.090233         2.596400         1.552908
 H         0.689886         1.558551         2.466989
 H         0.580682         0.480821        -0.871118
 H        -0.171309        -1.154879        -0.310003
 H        -0.858300         0.527878         0.186074
 H         1.206616        -1.076317         2.854258
