19
Iteration:  3337charge 0 multiplicity 1
 C         2.764631        -1.552565        -0.717498
 C         2.565392        -0.700628         0.527056
 O         3.531766        -0.699473         1.619354
 C         3.449154         0.463119         0.799286
 C         2.706182         1.538298         1.395162
 C         1.429080         1.136246         1.468154
 C         1.023792        -0.191292         1.021091
 C        -0.060470        -0.167935        -0.104471
 O         0.504071        -0.892310         2.198130
 H         3.794011        -1.699313        -0.902524
 H         2.201471        -2.554773        -0.725867
 H         2.334778        -0.923701        -1.547196
 H         4.343820         0.656986         0.162201
 H         3.063833         2.587222         1.424544
 H         0.624802         1.796275         1.800738
 H         0.144003         0.515899        -0.882028
 H        -0.283262        -1.130112        -0.584080
 H        -1.027787         0.229874         0.304804
 H         1.264214        -1.180508         2.714200
