19
Iteration:   411charge 0 multiplicity 1
 C         2.474825        -1.839168        -0.496604
 C         2.493609        -0.600065         0.530630
 O         3.439079        -0.792453         1.639250
 C         3.513346         0.446760         0.817198
 C         2.715968         1.511895         1.554567
 C         1.433473         1.305431         1.554193
 C         1.117414        -0.063149         0.981772
 C         0.268729        -0.011369        -0.269319
 O         0.452285        -0.883967         1.910312
 H         1.443174        -2.266643        -0.586464
 H         2.707800        -1.474805        -1.498092
 H         3.224372        -2.682893        -0.237650
 H         4.467968         0.597306         0.263144
 H         3.277506         2.294632         2.098331
 H         0.679082         1.898161         2.042339
 H        -0.272442        -1.011506        -0.390897
 H        -0.429496         0.872288        -0.310100
 H         0.866338        -0.032949        -1.234142
 H         1.125342        -1.234460         2.491077
