19
Iteration:  1849charge 0 multiplicity 1
 C         2.772571        -1.681102        -0.768782
 C         2.514431        -0.656238         0.406528
 O         3.243472        -0.945182         1.651732
 C         3.575843         0.375026         1.088529
 C         2.736088         1.415964         1.707044
 C         1.429558         1.312536         1.392138
 C         1.117990        -0.070742         0.876149
 C        -0.040539        -0.187757        -0.300986
 O         0.558545        -0.609404         2.084048
 H         2.032754        -2.437559        -0.997171
 H         2.871954        -1.190370        -1.732323
 H         3.616297        -2.252077        -0.440110
 H         4.617361         0.625264         0.940238
 H         3.135683         2.260684         2.235725
 H         0.578229         1.883063         1.832282
 H         0.480218         0.477088        -0.996123
 H        -0.258248        -1.138348        -0.824468
 H        -0.944849         0.207237         0.102842
 H         1.322968        -0.518361         2.799742
