19
Iteration:  2222
 C         2.676491        -1.635295        -0.644317
 C         2.501298        -0.622753         0.506064
 O         3.321528        -0.759995         1.720053
 C         3.478340         0.354311         0.916277
 C         2.708227         1.521152         1.518054
 C         1.439801         1.188890         1.604345
 C         1.138953        -0.095130         0.877736
 C         0.131775        -0.061760        -0.212417
 O         0.521170        -0.882190         1.910576
 H         1.761524        -2.167659        -0.921321
 H         2.863836        -1.171048        -1.615102
 H         3.430704        -2.406869        -0.496535
 H         4.430341         0.422156         0.344407
 H         3.212344         2.393174         1.913600
 H         0.532697         1.675062         1.968899
 H         0.839122        -0.086872        -1.043739
 H        -0.337230        -1.014296        -0.312560
 H        -0.535885         0.775022        -0.057340
 H         0.979253        -0.800392         2.841789
