19
Iteration:  3867charge 0 multiplicity 1
 C         2.823720        -1.662752        -0.621510
 C         2.528982        -0.693596         0.483885
 O         3.349310        -0.693733         1.682303
 C         3.430879         0.456860         0.731807
 C         2.680264         1.580148         1.365360
 C         1.366158         1.309030         1.446012
 C         1.106213        -0.243466         1.008506
 C        -0.046812        -0.056892        -0.069118
 O         0.615775        -1.026380         2.082598
 H         2.998970        -2.630719        -0.091862
 H         2.013893        -1.689933        -1.329156
 H         3.637579        -1.320909        -1.219624
 H         4.325162         0.651307         0.164592
 H         3.112959         2.572744         1.612467
 H         0.793596         2.010395         1.993466
 H         0.288422         0.491694        -0.930925
 H        -0.362769        -1.070489        -0.372788
 H        -0.780401         0.486629         0.580813
 H         1.416823        -1.121124         2.714843
