19
Iteration:  2135charge 0 multiplicity 1
 C         2.611145        -1.479481        -0.745808
 C         2.505381        -0.573538         0.493187
 O         3.109061        -0.965818         1.778696
 C         3.565542         0.382485         1.136321
 C         2.784872         1.487487         1.494437
 C         1.481896         1.283415         1.363426
 C         1.139550        -0.051525         0.857369
 C         0.057811        -0.211233        -0.263148
 O         0.669201        -0.832405         2.054100
 H         2.139440        -2.465745        -0.468823
 H         2.030303        -1.178325        -1.669163
 H         3.698930        -1.639922        -0.934112
 H         4.681599         0.378617         1.009319
 H         3.210093         2.416097         1.791695
 H         0.700780         1.929686         1.802284
 H         0.157218         0.595958        -1.043442
 H         0.311806        -1.101209        -0.842187
 H        -1.022169        -0.181570        -0.056408
 H         1.441765        -0.901008         2.564082
