19
Iteration:  4759charge 0 multiplicity 1
 C         2.868111        -1.579790        -0.655091
 C         2.520234        -0.698074         0.475680
 O         3.337208        -0.773472         1.719651
 C         3.400935         0.351810         0.843181
 C         2.735446         1.537277         1.328831
 C         1.421804         1.223244         1.409821
 C         1.080329        -0.229863         0.926777
 C        -0.139911        -0.113622        -0.070381
 O         0.651042        -0.782796         2.112603
 H         3.854916        -1.252996        -1.049430
 H         2.795892        -2.600506        -0.330858
 H         2.130287        -1.655974        -1.461853
 H         4.365932         0.389725         0.304736
 H         3.183180         2.408790         1.737989
 H         0.526592         1.702633         1.797289
 H         0.232158         0.730294        -0.651203
 H        -0.411351        -1.122810        -0.482686
 H        -1.035171         0.285079         0.480386
 H         1.463345        -0.741857         2.734606
