19
Iteration:  1237charge 0 multiplicity 1
 C         2.782628        -1.703153        -0.609747
 C         2.562521        -0.684887         0.491192
 O         3.417541        -0.831353         1.662190
 C         3.467057         0.412028         0.816505
 C         2.755290         1.575828         1.524351
 C         1.425441         1.194366         1.612232
 C         1.070265        -0.127909         0.926161
 C         0.133440         0.047209        -0.234700
 O         0.309094        -0.882096         1.961093
 H         2.242946        -2.686922        -0.448881
 H         2.521147        -1.313275        -1.671895
 H         3.851486        -1.939340        -0.552429
 H         4.423052         0.549602         0.249493
 H         3.333370         2.269568         2.199813
 H         0.727031         1.742891         2.236571
 H         0.653851         0.050199        -1.221369
 H        -0.722679        -0.657201         0.057663
 H        -0.505316         1.030034        -0.287821
 H         1.043271        -1.059529         2.651219
