19
Iteration:  1185charge 0 multiplicity 1
 C         2.401165        -1.793279        -0.478770
 C         2.532867        -0.653396         0.548878
 O         3.246556        -0.741832         1.751379
 C         3.467771         0.428211         0.903144
 C         2.736259         1.609363         1.500013
 C         1.487632         1.292210         1.552016
 C         1.184187        -0.060771         0.919779
 C         0.174005         0.132326        -0.286709
 O         0.705284        -1.168545         1.766838
 H         1.730889        -2.572068        -0.081838
 H         2.015186        -1.443092        -1.460827
 H         3.394821        -2.280043        -0.726499
 H         4.450851         0.538578         0.425216
 H         3.274275         2.518769         1.885960
 H         0.844891         1.796692         2.252380
 H         0.673964         0.878000        -0.976795
 H        -0.238717        -0.792895        -0.836909
 H        -0.740114         0.737028         0.248329
 H         1.122564        -1.142969         2.573898
