19
Iteration:  1366
 C         2.799348        -1.772100        -0.562543
 C         2.474282        -0.654105         0.419075
 O         3.349046        -0.901349         1.662510
 C         3.424747         0.399514         0.909016
 C         2.792475         1.554342         1.577319
 C         1.435257         1.306367         1.536589
 C         1.102489        -0.076552         0.884694
 C         0.089742         0.067906        -0.168158
 O         0.447044        -0.884424         1.903907
 H         2.086374        -2.560778        -0.253419
 H         2.634894        -1.400418        -1.608864
 H         3.767964        -2.195590        -0.442884
 H         4.422557         0.555208         0.420061
 H         3.194255         2.468042         2.007170
 H         0.721741         1.898361         2.062775
 H         0.607065         0.543558        -1.010597
 H        -0.399233        -0.890418        -0.573281
 H        -0.708460         0.675830         0.166760
 H         1.071556        -1.293035         2.513195
