19
Iteration:  1832charge 0 multiplicity 1
 C         2.832725        -1.644771        -0.640843
 C         2.528702        -0.636322         0.448438
 O         3.283788        -0.937052         1.690784
 C         3.470491         0.293032         0.966043
 C         2.741191         1.439082         1.661207
 C         1.420887         1.253277         1.372914
 C         1.093381        -0.084765         0.829412
 C         0.025551        -0.014151        -0.223700
 O         0.530204        -0.732161         2.033767
 H         1.998996        -2.408301        -0.467540
 H         2.742821        -1.142186        -1.688475
 H         3.837176        -2.093315        -0.528203
 H         4.427986         0.398895         0.397671
 H         3.183612         2.196335         2.308014
 H         0.693621         1.983129         1.660335
 H         0.031547         0.763727        -1.007868
 H         0.121256        -1.005084        -0.738763
 H        -0.973803         0.088554         0.292636
 H         1.115851        -0.209772         2.717918
