19
Iteration:  3837
 C         2.671584        -1.740533        -0.459958
 C         2.528914        -0.584701         0.405569
 O         3.392549        -0.680797         1.559809
 C         3.460648         0.497873         0.798405
 C         2.641169         1.605265         1.412721
 C         1.386863         1.246517         1.615275
 C         1.114348        -0.114107         0.916331
 C        -0.035634        -0.139841        -0.113070
 O         0.699086        -1.005633         1.972823
 H         2.221331        -2.656655        -0.127981
 H         2.102949        -1.715873        -1.467754
 H         3.777148        -1.918923        -0.624819
 H         4.485267         0.697646         0.336975
 H         3.046651         2.522670         1.831792
 H         0.826357         1.734849         2.377671
 H         0.104005         0.003239        -1.210481
 H        -0.342323        -1.159359         0.102509
 H        -0.844369         0.446983         0.278712
 H         1.506380        -1.076541         2.567460
