19
Iteration:  1868charge 0 multiplicity 1
 C         2.727968        -1.497083        -0.702507
 C         2.564037        -0.654178         0.489003
 O         3.222230        -1.054557         1.682676
 C         3.470944         0.303402         1.080164
 C         2.749970         1.522130         1.604785
 C         1.431258         1.381160         1.390152
 C         1.081843        -0.014616         0.824019
 C         0.092880        -0.231146        -0.254956
 O         0.582367        -0.666767         2.053463
 H         1.834047        -2.058143        -0.917864
 H         2.881397        -0.977348        -1.631923
 H         3.517677        -2.334333        -0.555010
 H         4.493001         0.296359         0.630367
 H         3.208032         2.295567         2.256932
 H         0.604301         2.028457         1.730915
 H         0.438041        -0.052570        -1.277212
 H        -0.216470        -1.240579        -0.120368
 H        -0.877476         0.246105         0.024268
 H         1.374472        -1.238663         2.416851
