19
Iteration:  3951
 C         2.755285        -1.705017        -0.519108
 C         2.490359        -0.588729         0.453563
 O         3.399330        -0.815073         1.575062
 C         3.415887         0.481427         0.812347
 C         2.665459         1.567447         1.459232
 C         1.334421         1.300575         1.508059
 C         1.091847        -0.059840         0.938736
 C        -0.059612        -0.173561        -0.158895
 O         0.760313        -0.936992         2.060241
 H         3.356110        -2.617128        -0.105198
 H         1.813502        -2.031353        -0.895348
 H         3.413394        -1.246789        -1.250808
 H         4.242487         0.784182         0.237451
 H         3.209940         2.365899         1.984668
 H         0.537844         1.837073         1.973803
 H         0.100989        -0.052216        -1.210956
 H        -0.494606        -1.197310         0.040288
 H        -0.987640         0.447841        -0.017750
 H         1.496583        -0.987914         2.647419
