19
Iteration:  4033charge 0 multiplicity 1
 C         2.677498        -1.682760        -0.538719
 C         2.480306        -0.615396         0.506470
 O         3.467436        -0.678634         1.551394
 C         3.484112         0.499923         0.732820
 C         2.702687         1.648342         1.390961
 C         1.396304         1.231121         1.535478
 C         1.056852        -0.121098         1.040904
 C         0.100381        -0.162120        -0.106003
 O         0.521124        -1.064175         2.108481
 H         2.478290        -2.626913        -0.100548
 H         2.092989        -1.646350        -1.520185
 H         3.729475        -1.762131        -0.951796
 H         4.373891         0.718567         0.077633
 H         2.976818         2.661800         1.650147
 H         0.461339         1.824514         1.740908
 H         0.423756         0.555922        -1.039311
 H         0.002134        -1.212909        -0.499592
 H        -0.888368         0.124613         0.266344
 H         1.317182        -1.192313         2.579922
