19
Iteration:  2240charge 0 multiplicity 1
 C         2.507019        -1.649117        -0.559348
 C         2.490757        -0.618395         0.573076
 O         3.325724        -0.801934         1.730535
 C         3.456831         0.447672         0.828586
 C         2.752485         1.572131         1.509188
 C         1.463068         1.330055         1.556621
 C         1.100072        -0.145283         0.987579
 C         0.320662        -0.019210        -0.312219
 O         0.506053        -1.056490         1.894596
 H         1.555516        -2.258645        -0.499887
 H         2.583303        -1.101268        -1.536837
 H         3.353841        -2.297034        -0.454730
 H         4.496551         0.661685         0.477874
 H         3.172036         2.471562         1.921005
 H         0.705838         1.919104         2.129522
 H         0.750121         0.224550        -1.320920
 H        -0.228487        -1.004252        -0.443006
 H        -0.591423         0.584681        -0.194108
 H         1.362030        -1.348414         2.419061
