19
Iteration:  1188charge 0 multiplicity 1
 C         2.392481        -1.784194        -0.482583
 C         2.521095        -0.650216         0.540527
 O         3.281302        -0.764328         1.763303
 C         3.456676         0.432962         0.899549
 C         2.738304         1.604642         1.503924
 C         1.470178         1.313347         1.527889
 C         1.191334        -0.029209         0.914862
 C         0.180196         0.131731        -0.283495
 O         0.697234        -1.182475         1.760187
 H         1.736845        -2.502185        -0.064396
 H         1.976077        -1.414238        -1.349719
 H         3.381783        -2.294563        -0.710952
 H         4.413272         0.525980         0.446441
 H         3.249117         2.494768         1.930199
 H         0.796268         1.778098         2.243662
 H         0.675429         0.769180        -0.965846
 H        -0.259238        -0.736229        -0.599933
 H        -0.619668         0.686484         0.073853
 H         1.155618        -1.258470         2.664899
