19
Iteration:   581
 C         2.771076        -1.742318        -0.598390
 C         2.464478        -0.750758         0.550526
 O         3.270662        -0.833562         1.733005
 C         3.462845         0.343501         0.861791
 C         2.762875         1.535571         1.490061
 C         1.477847         1.314296         1.449925
 C         1.127098        -0.137931         0.906554
 C         0.095257         0.154606        -0.193386
 O         0.489959        -0.895149         1.959128
 H         1.978331        -2.520747        -0.625306
 H         2.770329        -1.230552        -1.584809
 H         3.679304        -2.269586        -0.346300
 H         4.378627         0.457461         0.303613
 H         3.226212         2.402103         1.997905
 H         0.596661         1.767579         1.842096
 H        -0.633597        -0.649208        -0.372741
 H        -0.393296         1.095095         0.002933
 H         0.679467         0.174382        -1.125482
 H         1.165683        -1.039768         2.729568
