19
Iteration:  1184charge 0 multiplicity 1
 C         2.407515        -1.795943        -0.477399
 C         2.534666        -0.653040         0.549377
 O         3.237970        -0.735998         1.748254
 C         3.472740         0.427331         0.903482
 C         2.741558         1.611741         1.497792
 C         1.488453         1.284548         1.560971
 C         1.179954        -0.072738         0.920367
 C         0.170771         0.134822        -0.284706
 O         0.704048        -1.163400         1.765610
 H         1.725393        -2.594726        -0.082982
 H         2.022744        -1.446019        -1.496785
 H         3.381322        -2.265975        -0.723029
 H         4.467108         0.539929         0.422132
 H         3.269448         2.508104         1.867227
 H         0.841323         1.808459         2.251764
 H         0.666413         0.899571        -0.980525
 H        -0.222895        -0.800554        -0.897338
 H        -0.751688         0.732089         0.278210
 H         1.145111        -1.103353         2.595929
