19
Iteration:  1180
 C         2.431195        -1.803516        -0.478696
 C         2.529757        -0.646141         0.536468
 O         3.216687        -0.720139         1.742068
 C         3.502083         0.429120         0.898246
 C         2.776125         1.613072         1.480276
 C         1.476387         1.252134         1.602585
 C         1.156724        -0.122553         0.915583
 C         0.149689         0.151332        -0.271869
 O         0.690709        -1.139553         1.765736
 H         1.754077        -2.600715        -0.107435
 H         2.078076        -1.474375        -1.485214
 H         3.381122        -2.235944        -0.691561
 H         4.494197         0.519557         0.455808
 H         3.252836         2.493300         1.816206
 H         0.767761         1.850980         2.212917
 H         0.581756         0.902049        -0.933688
 H        -0.097198        -0.675226        -0.969025
 H        -0.660833         0.586542         0.238344
 H         1.228605        -0.964926         2.643005
