19
Iteration:  3104charge 0 multiplicity 1
 C         2.663102        -1.584681        -0.522051
 C         2.536710        -0.648895         0.570619
 O         3.330720        -0.678177         1.752347
 C         3.581864         0.471323         0.807609
 C         2.721917         1.616229         1.223600
 C         1.469724         1.255347         1.500648
 C         1.095721        -0.240964         1.004919
 C        -0.005044        -0.001716        -0.075116
 O         0.548753        -1.186786         1.922851
 H         2.246314        -0.896690        -1.345479
 H         3.694094        -1.836662        -0.710892
 H         2.056377        -2.486258        -0.397464
 H         4.514630         0.508516         0.261099
 H         3.147260         2.622127         1.386903
 H         0.755225         1.953903         1.900249
 H         0.360409         0.643699        -0.887870
 H        -0.454948        -0.881777        -0.516260
 H        -0.747595         0.579047         0.425892
 H         1.150986        -1.639915         2.459999
