19
Iteration:   607charge 0 multiplicity 1
 C         2.594414        -1.674691        -0.546026
 C         2.502819        -0.656149         0.572961
 O         3.241454        -0.833225         1.837068
 C         3.527948         0.334737         0.953782
 C         2.761532         1.586179         1.156816
 C         1.530639         1.273665         1.616783
 C         1.137046        -0.120615         0.992430
 C         0.170948         0.214523        -0.205956
 O         0.475815        -1.089189         1.839270
 H         1.964965        -2.510099        -0.307116
 H         2.389439        -1.326242        -1.519652
 H         3.645024        -2.044544        -0.475654
 H         4.599181         0.490886         0.638134
 H         3.020716         2.631145         1.087567
 H         0.702857         1.888104         2.069437
 H        -0.573504        -0.556819        -0.350720
 H        -0.295997         1.192845        -0.288486
 H         0.801276         0.137684        -1.090931
 H         1.120817        -1.509481         2.431305
