19
Iteration:  1808charge 0 multiplicity 1
 C         2.727031        -1.612109        -0.579902
 C         2.501438        -0.691162         0.604192
 O         3.311477        -0.922965         1.744032
 C         3.552410         0.294875         0.951952
 C         2.818262         1.585784         1.451957
 C         1.459734         1.354565         1.456866
 C         1.056118        -0.074600         0.947627
 C         0.039299         0.015263        -0.208541
 O         0.438688        -0.919840         1.869186
 H         2.369912        -2.670528        -0.310708
 H         2.371302        -1.218300        -1.636574
 H         3.784983        -1.694603        -0.607879
 H         4.483003         0.203782         0.427742
 H         3.315557         2.509901         1.666673
 H         0.766530         2.073745         1.929518
 H         0.297452         0.903708        -0.868782
 H         0.098792        -0.898664        -0.914470
 H        -0.967261         0.191825         0.161745
 H         1.179034        -1.257765         2.355212
