19
Iteration:  3112charge 0 multiplicity 1
 C         2.691283        -1.643586        -0.590659
 C         2.536878        -0.632210         0.614521
 O         3.327150        -0.579897         1.774142
 C         3.590229         0.411311         0.734381
 C         2.776607         1.631809         1.272286
 C         1.481549         1.227809         1.550610
 C         1.064659        -0.219832         1.004910
 C        -0.050115         0.029814        -0.047946
 O         0.536924        -1.213520         1.897554
 H         2.437864        -1.248710        -1.544422
 H         3.730018        -2.101987        -0.620786
 H         1.951505        -2.503507        -0.501124
 H         4.612729         0.562280         0.437749
 H         2.956552         2.675453         1.442698
 H         0.686786         1.930672         1.905814
 H         0.383705         0.544207        -0.942254
 H        -0.500220        -0.915301        -0.516248
 H        -0.965150         0.643849         0.326702
 H         1.350504        -1.423462         2.311458
