19
Iteration:  3354
 C         2.887949        -1.625387        -0.735736
 C         2.490073        -0.701505         0.456997
 O         3.444707        -0.771209         1.626200
 C         3.415610         0.423074         0.716917
 C         2.644556         1.639586         1.362613
 C         1.358686         1.267974         1.494555
 C         1.135779        -0.222949         0.987773
 C        -0.009622        -0.079297         0.037140
 O         0.505063        -0.944523         2.140676
 H         3.985385        -1.385997        -0.988554
 H         2.903585        -2.633013        -0.392388
 H         2.177586        -1.541791        -1.555632
 H         4.315056         0.566986         0.115989
 H         3.209925         2.379678         1.854018
 H         0.601483         1.891774         2.014700
 H         0.257459         0.565956        -0.869205
 H        -0.415664        -1.064640        -0.282009
 H        -0.856722         0.356764         0.552083
 H         1.108523        -0.970622         2.935602
