19
Iteration:  3393
 C         2.654772        -1.708520        -0.560450
 C         2.489842        -0.543429         0.413689
 O         3.363837        -0.665168         1.666985
 C         3.462786         0.479447         0.783369
 C         2.741096         1.636548         1.412935
 C         1.452853         1.262882         1.598025
 C         1.085233        -0.137009         0.959826
 C        -0.093271        -0.093759        -0.145181
 O         0.720358        -1.142863         2.004089
 H         3.109382        -1.551791        -1.488020
 H         3.325367        -2.399715         0.023679
 H         1.697688        -2.288851        -0.757001
 H         4.367147         0.480214         0.205892
 H         3.148400         2.552984         1.923104
 H         0.621987         1.849376         2.012621
 H         0.195423         0.408592        -1.056283
 H        -0.616125        -1.035995        -0.320863
 H        -0.756862         0.579999         0.412985
 H         1.606199        -1.284280         2.257665
