19
Iteration:  3676
 C         2.494800        -1.611821        -0.567007
 C         2.472734        -0.579059         0.522945
 O         3.383223        -0.756723         1.552448
 C         3.489270         0.495137         0.818981
 C         2.684413         1.639475         1.435314
 C         1.356174         1.304282         1.507887
 C         1.065489        -0.145466         1.045024
 C         0.070834        -0.254351        -0.230183
 O         0.821840        -1.061190         2.086173
 H         2.941320        -2.426525        -0.066822
 H         1.482480        -1.898559        -0.733622
 H         2.948020        -1.178208        -1.497263
 H         4.545753         0.683580         0.408469
 H         3.052169         2.631860         1.851758
 H         0.589071         1.924097         1.974488
 H         0.508343         0.302818        -1.138158
 H        -0.249779        -1.209176        -0.619081
 H        -0.828237         0.232417         0.049803
 H         1.692675        -1.023372         2.656288
