19
Iteration:  1727charge 0 multiplicity 1
 C         2.631351        -1.947376        -0.274486
 C         2.510656        -0.603992         0.461174
 O         3.546397        -0.747001         1.485015
 C         3.468280         0.516950         0.817177
 C         2.743804         1.514860         1.648773
 C         1.446154         1.128247         1.644345
 C         1.061699        -0.032683         0.942640
 C         0.240362         0.208965        -0.285247
 O         0.265071        -1.009449         1.776965
 H         2.018041        -2.730674         0.123984
 H         2.307115        -1.831092        -1.288052
 H         3.805375        -2.250754        -0.321969
 H         4.308327         0.759497         0.114330
 H         3.177857         2.351756         2.233335
 H         0.726128         1.657361         2.216534
 H         1.060800         0.492645        -0.966893
 H        -0.243901        -0.684899        -0.618062
 H        -0.508243         1.074715        -0.279024
 H         0.694181        -1.021820         2.628640
