19
Iteration:  2550
 C         2.823838        -1.791808        -0.485140
 C         2.533930        -0.627996         0.508026
 O         3.396586        -0.942951         1.651820
 C         3.432418         0.515958         0.881166
 C         2.706422         1.581050         1.495133
 C         1.410096         1.253822         1.517545
 C         1.093570        -0.118960         0.924591
 C         0.043725         0.135401        -0.236062
 O         0.454454        -0.936704         1.883486
 H         1.931487        -2.127571        -0.993085
 H         3.674396        -1.564654        -1.174614
 H         3.164194        -2.656696         0.165979
 H         4.421680         0.462228         0.354618
 H         3.148997         2.374391         2.091654
 H         0.518880         1.721100         2.050121
 H         0.625487         0.543597        -1.028524
 H        -0.529134        -0.749153        -0.540053
 H        -0.551661         0.991343         0.092951
 H         1.008020        -1.158489         2.645284
