19
Iteration:  1884charge 0 multiplicity 1
 C         2.657825        -1.381073        -0.719593
 C         2.434719        -0.554336         0.574490
 O         3.191107        -1.055846         1.818373
 C         3.509387         0.271738         1.017570
 C         2.788332         1.479897         1.538846
 C         1.492720         1.383479         1.311467
 C         1.115203        -0.056739         0.921478
 C         0.094477        -0.251521        -0.178528
 O         0.594250        -0.808498         1.945285
 H         1.782886        -2.046545        -0.921669
 H         3.001021        -0.660055        -1.516801
 H         3.555320        -1.851550        -0.535626
 H         4.496052         0.351690         0.589730
 H         3.348044         2.370892         1.751771
 H         0.752703         2.153578         1.462952
 H         0.535693        -0.120075        -1.189665
 H        -0.309222        -1.318090        -0.118009
 H        -0.662792         0.494587        -0.307095
 H         1.375338        -1.113809         2.486672
