19
Iteration:  2898charge 0 multiplicity 1
 C         2.630696        -1.884843        -0.468646
 C         2.591396        -0.635716         0.525693
 O         3.595421        -0.677042         1.590854
 C         3.490971         0.534292         0.783001
 C         2.632968         1.554544         1.573940
 C         1.330599         1.172745         1.646236
 C         1.083402        -0.065866         0.862352
 C        -0.025976         0.010948        -0.246620
 O         0.549000        -0.972538         1.902748
 H         1.833095        -1.769809        -1.246067
 H         3.577406        -1.772430        -1.001218
 H         2.615423        -2.860926        -0.053923
 H         4.237858         0.845853         0.026950
 H         2.909253         2.436725         2.147782
 H         0.650738         1.694474         2.399141
 H         0.351700         0.282912        -1.232064
 H        -0.307853        -1.046400        -0.259692
 H        -0.740250         0.696065         0.178236
 H         1.321350        -1.208010         2.524742
