19
Iteration:  1501charge 0 multiplicity 1
 C         2.681622        -1.765615        -0.466719
 C         2.465341        -0.592923         0.457663
 O         3.205094        -0.857011         1.675772
 C         3.617598         0.325273         0.988868
 C         2.821859         1.585481         1.525461
 C         1.491950         1.303148         1.499236
 C         1.072847        -0.080823         0.869615
 C         0.028727         0.129438        -0.157705
 O         0.540055        -0.999885         1.780523
 H         1.973903        -2.651283        -0.418486
 H         2.823323        -1.527780        -1.540895
 H         3.733795        -2.267200        -0.332137
 H         4.604214         0.485280         0.529881
 H         3.402876         2.378286         2.000108
 H         0.644646         1.948662         1.797827
 H         0.388463         0.673760        -1.080727
 H        -0.273177        -0.862997        -0.509832
 H        -0.783222         0.626918         0.514129
 H         0.958436        -0.810590         2.634024
