19
Iteration:   631
 C         2.511533        -1.741338        -0.364030
 C         2.504304        -0.640711         0.645898
 O         3.350709        -0.775167         1.827644
 C         3.483816         0.372741         0.772056
 C         2.822115         1.546392         1.336439
 C         1.506233         1.316977         1.567732
 C         1.126038        -0.079811         0.956088
 C         0.217515         0.177298        -0.214107
 O         0.451277        -1.159645         1.685236
 H         1.927044        -2.634630        -0.079810
 H         1.964142        -1.219602        -1.208434
 H         3.511303        -1.989441        -0.705999
 H         4.456445         0.446328         0.280156
 H         3.218197         2.567826         1.617285
 H         0.899355         2.148703         2.036014
 H        -0.349337        -0.766282        -0.356764
 H        -0.541305         1.001215        -0.001528
 H         0.717415         0.433637        -1.204189
 H         0.867767        -1.324746         2.513736
