19
Iteration:  2122
 C         2.557019        -1.544165        -0.682861
 C         2.516673        -0.600586         0.469693
 O         3.254269        -0.933216         1.736893
 C         3.530052         0.239359         1.082666
 C         2.739860         1.572104         1.596333
 C         1.393189         1.418739         1.395489
 C         1.110029        -0.045196         0.859439
 C         0.177310        -0.200026        -0.293360
 O         0.610365        -0.839674         2.009978
 H         2.216805        -2.554045        -0.337255
 H         2.059470        -1.144585        -1.602074
 H         3.539722        -1.699366        -1.032157
 H         4.561025         0.379777         0.675475
 H         3.289779         2.368527         2.115800
 H         0.553453         2.097207         1.647297
 H         0.293225         0.592948        -1.036218
 H         0.147534        -1.232421        -0.656392
 H        -0.714567        -0.151167         0.261091
 H         1.486840        -1.237654         2.389901
