19
Iteration:  2341
 C         2.756941        -1.774348        -0.489688
 C         2.472782        -0.681884         0.575461
 O         3.404807        -0.836302         1.649923
 C         3.392319         0.385317         0.830111
 C         2.745159         1.564412         1.461990
 C         1.402097         1.296305         1.587550
 C         1.133671        -0.082418         0.986485
 C         0.256104         0.122670        -0.199687
 O         0.342570        -0.976327         1.810923
 H         2.826615        -2.754912        -0.006687
 H         2.000448        -1.800805        -1.265137
 H         3.729335        -1.490923        -0.950980
 H         4.373889         0.472225         0.388310
 H         3.258394         2.418597         1.955550
 H         0.628182         1.938955         1.971950
 H         0.672133         0.699747        -1.069190
 H        -0.211370        -0.722819        -0.675774
 H        -0.566553         0.696937         0.239966
 H         0.975528        -1.285711         2.507009
