19
Iteration:  3782
 C         2.574371        -1.612707        -0.594799
 C         2.579589        -0.647312         0.506790
 O         3.539765        -0.714516         1.645621
 C         3.434733         0.488488         0.711346
 C         2.557850         1.647172         1.239839
 C         1.344923         1.179683         1.645626
 C         1.092576        -0.218217         1.027198
 C         0.121900        -0.124698        -0.083064
 O         0.613271        -0.992109         2.089844
 H         1.649123        -2.221704        -0.649603
 H         2.837486        -1.135521        -1.634303
 H         3.278574        -2.452682        -0.490248
 H         4.416807         0.652553         0.210566
 H         2.901426         2.709643         1.441940
 H         0.568712         1.757895         2.131930
 H         0.512914         0.641227        -0.766211
 H        -0.002851        -1.034764        -0.685244
 H        -0.909570         0.179195         0.138642
 H         1.394358        -1.205342         2.604747
