19
Iteration:  1416
 C         2.646111        -1.619514        -0.579665
 C         2.493074        -0.802173         0.652600
 O         3.471780        -0.808394         1.684126
 C         3.480951         0.372051         0.818391
 C         2.726935         1.566598         1.321882
 C         1.477652         1.258221         1.640912
 C         1.136871        -0.164949         1.053526
 C         0.332023         0.145201        -0.197460
 O         0.213927        -0.987418         1.823638
 H         2.397926        -2.649322        -0.354978
 H         2.120678        -1.103448        -1.392464
 H         3.725019        -1.659845        -0.764589
 H         4.334659         0.482538         0.108070
 H         3.296673         2.488988         1.519612
 H         0.743334         1.713232         2.359338
 H         0.820758         0.626091        -1.066809
 H        -0.084050        -0.810851        -0.466248
 H        -0.646641         0.577544         0.069407
 H         0.353925        -0.871436         2.839838
