19
Iteration:  3386charge 0 multiplicity 1
 C         2.742824        -1.685977        -0.540728
 C         2.480147        -0.542515         0.386773
 O         3.359500        -0.727681         1.627728
 C         3.459146         0.448193         0.766123
 C         2.720422         1.651080         1.402161
 C         1.443272         1.241326         1.649709
 C         1.069099        -0.130384         0.948700
 C        -0.101559        -0.050597        -0.094182
 O         0.696920        -1.121105         2.033059
 H         3.399507        -1.406088        -1.530349
 H         3.262537        -2.358401         0.132912
 H         1.821358        -2.281045        -0.892841
 H         4.388620         0.469839         0.192178
 H         3.179846         2.577009         1.644590
 H         0.601909         1.927716         1.873361
 H         0.087222         0.321625        -1.184887
 H        -0.471872        -1.081050        -0.303567
 H        -0.955804         0.554442         0.251142
 H         1.587360        -1.183232         2.523152
