19
Iteration:  1173charge 0 multiplicity 1
 C         2.510674        -1.801692        -0.472892
 C         2.498182        -0.619003         0.471143
 O         3.219558        -0.718164         1.745702
 C         3.549340         0.432690         0.876934
 C         2.802284         1.580943         1.436094
 C         1.466967         1.201375         1.672779
 C         1.109743        -0.164250         0.878091
 C         0.157347         0.179986        -0.225826
 O         0.634809        -1.094760         1.801035
 H         1.788900        -2.577167        -0.082596
 H         2.103357        -1.422254        -1.479592
 H         3.506152        -2.252824        -0.577230
 H         4.616499         0.426899         0.543135
 H         3.250335         2.529607         1.763129
 H         0.624444         1.812650         2.006935
 H         0.511429         1.091626        -0.830105
 H         0.053817        -0.702984        -1.009857
 H        -0.991628         0.405472         0.202302
 H         1.294017        -0.896690         2.576585
