19
Iteration:  3770charge 0 multiplicity 1
 C         2.737438        -1.693337        -0.687901
 C         2.521636        -0.701583         0.564253
 O         3.462744        -0.703986         1.638297
 C         3.323610         0.538504         0.693710
 C         2.594157         1.645076         1.219582
 C         1.435337         1.162029         1.577772
 C         1.148480        -0.167658         1.122312
 C         0.091658        -0.041923        -0.061131
 O         0.563434        -1.028083         2.090330
 H         1.722563        -2.250353        -0.827347
 H         2.823688        -0.977647        -1.613958
 H         3.652002        -2.251038        -0.521632
 H         4.220038         0.569732         0.113016
 H         3.020974         2.651444         1.495815
 H         0.692330         1.731507         2.137041
 H         0.295573         0.638725        -0.860922
 H         0.177969        -1.095915        -0.411877
 H        -0.927187         0.051984         0.435421
 H         1.238465        -1.116051         2.755223
