19
Iteration:  1966charge 0 multiplicity 1
 C         2.736771        -1.780836        -0.450640
 C         2.492103        -0.593397         0.452396
 O         3.411518        -0.815898         1.592516
 C         3.477131         0.434276         0.861284
 C         2.791577         1.457729         1.600164
 C         1.486400         1.294280         1.662664
 C         0.969284        -0.051596         0.897142
 C         0.081067         0.062730        -0.318680
 O         0.443232        -0.944132         1.888638
 H         2.191290        -2.534541         0.159863
 H         2.131715        -1.911512        -1.326907
 H         3.812465        -2.210913        -0.559209
 H         4.487502         0.567544         0.485016
 H         3.295974         2.315484         1.979548
 H         0.798910         2.042398         2.086900
 H         0.429690         0.961885        -0.833327
 H         0.232634        -0.730835        -1.070409
 H        -1.046947         0.092312        -0.119150
 H         1.135402        -1.173619         2.541031
