19
Iteration:  2450
 C         2.958194        -1.597480        -0.636587
 C         2.523200        -0.803003         0.519566
 O         3.180136        -0.891902         1.812138
 C         3.441302         0.392545         0.957199
 C         2.777861         1.518091         1.451867
 C         1.436409         1.244980         1.429215
 C         1.147558        -0.133457         0.806031
 C        -0.149222         0.083636        -0.163710
 O         0.584606        -0.849439         1.939132
 H         2.197132        -1.925232        -1.341293
 H         3.574728        -0.981397        -1.250611
 H         3.536147        -2.491594        -0.315460
 H         4.403400         0.306076         0.530855
 H         3.386805         2.351302         1.903696
 H         0.566282         1.851215         1.737362
 H         0.076498         0.962054        -0.743033
 H        -0.395402        -0.760837        -0.729341
 H        -0.840722         0.094323         0.617254
 H         1.189328        -0.879790         2.706657
