19
Iteration:  4640charge 0 multiplicity 1
 C         2.799196        -1.832947        -0.488240
 C         2.460290        -0.713748         0.591645
 O         3.521357        -0.686497         1.514681
 C         3.397662         0.513595         0.553569
 C         2.617011         1.625694         1.283387
 C         1.399156         1.270525         1.695432
 C         1.023540        -0.117013         1.122368
 C         0.138644         0.020646        -0.078928
 O         0.457412        -1.093358         2.003720
 H         3.579396        -2.332257         0.187339
 H         1.828542        -2.316893        -0.831327
 H         3.151826        -1.319988        -1.459456
 H         4.223061         0.677046        -0.224447
 H         3.236872         2.507461         1.544395
 H         0.706155         1.944380         2.188482
 H         0.935843         0.334063        -0.796255
 H        -0.557409        -0.844249        -0.216942
 H        -0.514225         0.932721         0.127531
 H         1.279293        -1.176930         2.531854
