19
Iteration:  3971
 C         2.736986        -1.658865        -0.594638
 C         2.499149        -0.553977         0.427724
 O         3.372977        -0.768151         1.598461
 C         3.519237         0.491695         0.842737
 C         2.660234         1.632631         1.439008
 C         1.351202         1.230184         1.376799
 C         1.032126        -0.203890         0.950574
 C        -0.055279        -0.149680        -0.043167
 O         0.712508        -1.002311         2.099844
 H         3.219336        -2.447395         0.046032
 H         1.781862        -2.019548        -0.881519
 H         3.551285        -1.443992        -1.288802
 H         4.520421         0.630426         0.502097
 H         3.047703         2.611454         1.772613
 H         0.552434         1.823871         1.855564
 H         0.469208         0.042804        -0.964675
 H        -0.910360        -0.817159        -0.006195
 H        -0.492373         0.834163         0.000690
 H         1.530308        -1.212744         2.498524
