19
Iteration:    94charge 0 multiplicity 1
 C         2.861664        -1.842049        -0.419811
 C         2.440655        -0.711413         0.540443
 O         3.490814        -0.805320         1.488850
 C         3.365958         0.407420         0.696866
 C         2.759739         1.508953         1.445586
 C         1.422959         1.311143         1.650169
 C         1.013093        -0.120803         1.092897
 C         0.274246         0.241781        -0.299752
 O         0.261905        -0.975458         2.024298
 H         2.375377        -2.794501        -0.106640
 H         2.520195        -1.899950        -1.514599
 H         3.915799        -1.856524        -0.245679
 H         4.095117         0.536468        -0.146518
 H         3.176801         2.392023         1.897481
 H         0.628902         1.914870         2.081449
 H         0.093565        -0.714600        -0.840736
 H        -0.709493         0.756185        -0.138371
 H         0.835678         0.927973        -1.011743
 H         0.917219        -1.178949         2.836228
