19
Iteration:   511charge 0 multiplicity 1
 C         2.580378        -1.507069        -0.725467
 C         2.573953        -0.684701         0.553101
 O         3.198936        -0.981007         1.818692
 C         3.517418         0.235229         1.034085
 C         2.804894         1.466290         1.506776
 C         1.462490         1.377510         1.346509
 C         1.088893        -0.034508         0.916371
 C         0.131617        -0.166976        -0.292407
 O         0.560632        -0.726708         2.049772
 H         2.257536        -2.564991        -0.598707
 H         2.045427        -0.967682        -1.531769
 H         3.684278        -1.572173        -1.043140
 H         4.535262         0.169797         0.587572
 H         3.258498         2.369500         1.824768
 H         0.740412         2.156682         1.552690
 H         0.271053        -1.082723        -0.919588
 H        -0.975779        -0.132192         0.008745
 H         0.332126         0.640292        -1.059050
 H         1.337480        -0.791309         2.727609
