19
Iteration:   703charge 0 multiplicity 1
 C         2.657034        -1.779234        -0.532282
 C         2.430637        -0.714324         0.568519
 O         3.382827        -0.751589         1.693608
 C         3.435475         0.289456         0.867558
 C         2.842149         1.507967         1.526998
 C         1.551412         1.294756         1.456561
 C         1.094747        -0.067909         0.956515
 C         0.195028         0.074147        -0.289089
 O         0.320767        -0.878494         1.933028
 H         2.378077        -2.800295        -0.278338
 H         2.288029        -1.503855        -1.480371
 H         3.786507        -1.642209        -0.519472
 H         4.335809         0.537641         0.205440
 H         3.521592         2.234802         2.012638
 H         0.696035         1.873144         1.953041
 H         0.618547        -0.476870        -1.103741
 H        -0.788775        -0.268797        -0.090372
 H         0.134027         1.088914        -0.583178
 H         0.846783        -1.085400         2.700476
