19
Iteration:  2700charge 0 multiplicity 1
 C         2.823348        -1.497582        -0.672007
 C         2.526766        -0.671908         0.596084
 O         3.233331        -0.885783         1.729049
 C         3.488782         0.402706         0.939579
 C         2.821235         1.591519         1.352604
 C         1.496493         1.343257         1.460197
 C         1.031069        -0.141660         0.999101
 C         0.026231        -0.116100        -0.189032
 O         0.481099        -1.014570         1.968355
 H         3.812382        -1.419047        -0.952989
 H         2.640409        -2.549561        -0.424535
 H         2.110690        -1.189710        -1.478018
 H         4.502013         0.564329         0.511406
 H         3.306772         2.505778         1.657816
 H         0.657519         1.977894         1.757165
 H         0.628290         0.144317        -1.049388
 H        -0.591361        -0.995886        -0.172736
 H        -0.718976         0.719028        -0.043127
 H         1.208232        -1.148818         2.700521
