19
Iteration:  3247charge 0 multiplicity 1
 C         2.906042        -1.649182        -0.586779
 C         2.537763        -0.683289         0.517723
 O         3.390667        -0.755044         1.608104
 C         3.440363         0.470196         0.728353
 C         2.637610         1.553773         1.419809
 C         1.373698         1.241976         1.495251
 C         1.101295        -0.159846         0.939358
 C        -0.227312        -0.050720         0.025253
 O         0.681369        -0.987142         2.010812
 H         4.041750        -1.814703        -0.748465
 H         2.482635        -2.614236        -0.585076
 H         2.474581        -1.211076        -1.470447
 H         4.403791         0.721616         0.239299
 H         3.113186         2.488462         1.691502
 H         0.446187         1.770398         1.842777
 H         0.203674         0.079209        -0.998692
 H        -0.893691        -0.868814         0.277956
 H        -0.554088         0.906993         0.372163
 H         1.457795        -1.127980         2.506033
