19
Iteration:   924charge 0 multiplicity 1
 C         2.631896        -1.765065        -0.364124
 C         2.552444        -0.525851         0.439314
 O         3.409496        -0.870883         1.663917
 C         3.550838         0.359845         0.874806
 C         2.758728         1.479415         1.484238
 C         1.396386         1.232542         1.600022
 C         1.048913        -0.031333         0.893295
 C         0.058884         0.159426        -0.254732
 O         0.542986        -1.011565         1.781537
 H         1.953954        -2.389678         0.228856
 H         2.216169        -1.638987        -1.419234
 H         3.542398        -2.238672        -0.317890
 H         4.517830         0.605969         0.377791
 H         3.310923         2.204387         2.146793
 H         0.602028         1.803977         2.194882
 H         0.061400         1.140079        -0.550273
 H         0.204677        -0.361516        -1.138706
 H        -0.932125         0.025838         0.142706
 H         0.871936        -0.812337         2.620611
