19
Iteration:  3895
 C         2.710637        -1.558520        -0.638417
 C         2.524779        -0.632496         0.577332
 O         3.490850        -0.869766         1.671999
 C         3.471403         0.439161         0.840299
 C         2.621065         1.638145         1.258648
 C         1.383276         1.304827         1.454403
 C         1.097842        -0.213442         1.092522
 C         0.008800        -0.150287        -0.124324
 O         0.569566        -0.961484         2.072481
 H         3.219919        -2.411036        -0.121219
 H         1.794478        -1.734938        -1.243509
 H         3.472199        -1.105287        -1.336116
 H         4.238191         0.609527         0.066975
 H         2.986199         2.677329         1.269817
 H         0.634669         2.128317         1.725077
 H         0.229848         0.699319        -0.797410
 H        -0.031168        -1.148921        -0.625400
 H        -1.006278        -0.061116         0.347331
 H         1.246182        -1.154546         2.783873
