19
Iteration:   554
 C         2.786041        -1.675030        -0.541700
 C         2.516147        -0.592369         0.468520
 O         3.404036        -0.962443         1.638745
 C         3.604924         0.298324         0.911889
 C         2.801710         1.378606         1.617054
 C         1.426180         1.351919         1.539963
 C         1.009583         0.025119         0.833702
 C        -0.037014        -0.107375        -0.295207
 O         0.428312        -0.693386         1.982288
 H         1.860998        -2.269141        -0.420174
 H         2.710526        -1.330200        -1.597232
 H         3.647800        -2.367011        -0.293086
 H         4.549485         0.558860         0.372010
 H         3.264953         2.126463         2.204167
 H         0.589903         2.005247         1.865481
 H        -0.136310        -1.205479        -0.532965
 H        -1.028447         0.295945         0.088580
 H         0.321522         0.309406        -1.265669
 H         1.171103        -0.644092         2.728928
