19
Iteration:  1702
 C         2.634612        -1.849443        -0.400980
 C         2.522216        -0.678483         0.592704
 O         3.566709        -0.672352         1.621438
 C         3.450745         0.440295         0.717037
 C         2.746297         1.489363         1.582241
 C         1.456739         1.161573         1.785013
 C         1.113716        -0.073362         0.989043
 C         0.269714         0.031375        -0.362437
 O         0.220678        -0.846019         1.735131
 H         1.838695        -2.596857        -0.242953
 H         2.291032        -1.457363        -1.415208
 H         3.626360        -2.295795        -0.602773
 H         4.260047         0.509618         0.009368
 H         3.186979         2.379562         1.966118
 H         0.854540         1.624649         2.619454
 H         0.666893         0.778763        -1.023135
 H        -0.162276        -0.922449        -0.699420
 H        -0.557971         0.606286         0.062886
 H         0.630528        -1.447075         2.283728
