19
Iteration:  2560
 C         2.846916        -1.815690        -0.472784
 C         2.517208        -0.709591         0.560645
 O         3.380819        -0.896042         1.647279
 C         3.421134         0.426762         0.847504
 C         2.673065         1.622250         1.432804
 C         1.376984         1.268322         1.551565
 C         1.097889        -0.097512         0.937967
 C         0.114961         0.224106        -0.149043
 O         0.446638        -1.013983         1.823289
 H         2.033200        -1.951576        -1.142780
 H         3.638845        -1.398817        -1.114511
 H         3.131432        -2.784820         0.062671
 H         4.514753         0.630834         0.587509
 H         3.301374         2.419432         1.845392
 H         0.641986         2.060509         1.925330
 H         0.539726         0.646772        -1.042634
 H        -0.308245        -0.754183        -0.404571
 H        -0.774546         0.793429         0.188019
 H         1.018625        -0.999993         2.555398
