19
Iteration:  1589
 C         2.764547        -1.610904        -0.681909
 C         2.499518        -0.600339         0.433329
 O         3.313517        -1.033406         1.623982
 C         3.485223         0.252602         1.075136
 C         2.787124         1.479498         1.715120
 C         1.473299         1.444237         1.430899
 C         1.060961        -0.037515         0.874479
 C         0.054289        -0.183609        -0.228660
 O         0.501782        -0.687909         1.926832
 H         2.042914        -2.443956        -0.373455
 H         2.311941        -1.288850        -1.694700
 H         3.853187        -1.879583        -0.600375
 H         4.579307         0.354946         0.800815
 H         3.358269         2.268745         2.176876
 H         0.632938         1.948942         1.779726
 H         0.321002         0.183834        -1.284004
 H        -0.135805        -1.286601        -0.302854
 H        -0.973777         0.283825        -0.021841
 H         1.024941        -0.393700         2.781465
