19
Iteration:  4455charge 0 multiplicity 1
 C         2.497003        -1.742326        -0.679677
 C         2.564580        -0.632497         0.488651
 O         3.404836        -0.656420         1.629971
 C         3.426235         0.545752         0.696491
 C         2.643600         1.645951         1.342328
 C         1.394679         1.281448         1.513679
 C         1.094108        -0.149229         1.034636
 C         0.076954        -0.272107        -0.027367
 O         0.744459        -0.952194         2.115200
 H         2.775695        -1.295687        -1.660366
 H         3.300540        -2.507258        -0.480997
 H         1.697364        -2.481526        -0.887892
 H         4.422036         0.693446         0.307806
 H         3.242450         2.378930         1.931248
 H         0.527482         1.730427         2.043077
 H         0.329155         0.667454        -0.668856
 H         0.084633        -1.391068        -0.474331
 H        -1.050478        -0.039926         0.271153
 H         1.482126        -0.998004         2.770563
