19
Iteration:  1958
 C         2.774834        -1.764161        -0.497953
 C         2.470684        -0.634588         0.462295
 O         3.394519        -0.897023         1.641376
 C         3.475638         0.416545         0.849623
 C         2.826579         1.530516         1.608574
 C         1.472916         1.298813         1.556980
 C         0.971180        -0.070884         0.920536
 C         0.068209         0.087202        -0.303981
 O         0.419674        -0.924943         1.934922
 H         2.438150        -2.663794         0.110851
 H         2.375988        -1.692875        -1.545049
 H         3.887053        -1.868196        -0.479427
 H         4.420754         0.685976         0.430090
 H         3.222590         2.401854         2.115158
 H         0.826865         2.008872         2.068308
 H         0.356271         0.981566        -0.896073
 H        -0.072251        -0.825947        -0.968262
 H        -0.989890         0.128835        -0.018681
 H         1.340532        -1.234652         2.306190
