19
Iteration:  2607charge 0 multiplicity 1
 C         2.572524        -1.750564        -0.490305
 C         2.526855        -0.675462         0.688319
 O         3.330979        -0.711622         1.751836
 C         3.555902         0.462527         0.798876
 C         2.720240         1.612857         1.352024
 C         1.442763         1.225026         1.587997
 C         1.182066        -0.071201         0.939038
 C         0.180537         0.094893        -0.260235
 O         0.436245        -1.123049         1.823526
 H         2.345975        -1.051270        -1.392860
 H         3.613258        -2.120345        -0.641338
 H         1.819725        -2.480959        -0.285169
 H         4.540469         0.317645         0.323318
 H         3.215414         2.526860         1.703940
 H         0.841118         1.661804         2.329451
 H         0.359699         1.054089        -0.774495
 H         0.150571        -0.742751        -0.980513
 H        -0.824590         0.064264         0.197568
 H         1.049956        -1.518743         2.424020
