19
Iteration:   280
 C         2.517114        -1.746321        -0.647854
 C         2.512624        -0.727118         0.486056
 O         3.206364        -0.839170         1.751424
 C         3.491412         0.337336         0.916198
 C         2.796633         1.531454         1.495877
 C         1.439281         1.292455         1.436485
 C         1.186084        -0.072533         0.960975
 C         0.212614         0.030211        -0.279219
 O         0.584350        -0.837269         2.056008
 H         2.028681        -2.736568        -0.344706
 H         1.749255        -1.289160        -1.342215
 H         3.523786        -1.915360        -1.092894
 H         4.459481         0.448598         0.513612
 H         3.318166         2.461447         1.886488
 H         0.589961         1.911923         1.828125
 H        -0.370884        -0.924075        -0.564270
 H        -0.541201         0.820292         0.008407
 H         0.743376         0.331076        -1.270605
 H         1.537518        -0.899347         2.543861
