19
Iteration:   725charge 0 multiplicity 1
 C         2.649251        -1.606924        -0.541043
 C         2.614049        -0.692567         0.618955
 O         3.262908        -0.929950         1.864003
 C         3.579454         0.273426         0.908348
 C         2.794550         1.553092         1.283607
 C         1.531802         1.294683         1.504152
 C         1.093178        -0.060118         0.938159
 C         0.080039         0.039728        -0.237000
 O         0.392506        -0.910793         1.843363
 H         2.012366        -2.463452        -0.318519
 H         2.138034        -1.072844        -1.294206
 H         3.725890        -1.881146        -0.825859
 H         4.585449         0.461528         0.444952
 H         3.256521         2.570453         1.408085
 H         0.809561         2.096668         1.906121
 H         0.359517        -0.457473        -1.126628
 H        -0.847501        -0.334751         0.113619
 H        -0.074063         1.058802        -0.467182
 H         0.996955        -1.017859         2.642820
