19
Iteration:  1245charge 0 multiplicity 1
 C         2.880082        -1.713790        -0.679692
 C         2.524008        -0.729426         0.479932
 O         3.389679        -0.796887         1.695132
 C         3.436139         0.406669         0.771519
 C         2.718959         1.478365         1.506567
 C         1.455731         1.197587         1.644384
 C         1.052258        -0.108841         0.964471
 C         0.111404         0.040732        -0.181161
 O         0.339171        -0.808682         1.948334
 H         2.372574        -2.673733        -0.571331
 H         2.671277        -1.253101        -1.678233
 H         3.908866        -1.838117        -0.580473
 H         4.349581         0.474507         0.141649
 H         3.200118         2.083814         2.244415
 H         0.685460         1.793428         2.199899
 H         0.608751        -0.027179        -1.127762
 H        -0.637019        -0.727474        -0.291779
 H        -0.234856         0.968065        -0.079882
 H         0.823443        -0.832291         2.873491
