19
Iteration:  3564charge 0 multiplicity 1
 C         2.494380        -1.686837        -0.523602
 C         2.550680        -0.563760         0.418542
 O         3.315868        -0.668209         1.602020
 C         3.504952         0.500794         0.865237
 C         2.669731         1.598951         1.402851
 C         1.415935         1.188952         1.599186
 C         1.085238        -0.144147         0.964753
 C         0.111519        -0.121756        -0.200565
 O         0.737543        -1.021617         2.055356
 H         2.286701        -1.400272        -1.528878
 H         3.479669        -2.248296        -0.695524
 H         1.778680        -2.440991        -0.244253
 H         4.458707         0.640653         0.406940
 H         3.041909         2.520562         1.833112
 H         0.655461         1.705005         2.189787
 H         0.438699         0.571591        -0.942210
 H        -0.003602        -1.106038        -0.683654
 H        -0.941562         0.160192         0.122802
 H         1.526396        -1.490998         2.208190
