19
Iteration:  3309charge 0 multiplicity 1
 C         2.520473        -1.512535        -0.642013
 C         2.522461        -0.573708         0.505225
 O         3.492120        -0.845592         1.612373
 C         3.385692         0.465315         0.823543
 C         2.674155         1.663072         1.402198
 C         1.387445         1.287162         1.440723
 C         1.142556        -0.074762         0.997301
 C         0.153493        -0.332941        -0.082582
 O         0.621291        -0.984512         2.099115
 H         3.322776        -2.269419        -0.437236
 H         1.579250        -2.002398        -0.794792
 H         2.702987        -0.882422        -1.533714
 H         4.233511         0.622232         0.200892
 H         3.319262         2.442802         1.853367
 H         0.540904         1.832846         1.869260
 H         0.143191         0.288395        -1.029749
 H         0.028510        -1.386054        -0.373944
 H        -0.879790        -0.170292         0.237682
 H         1.328104        -1.117943         2.792803
