19
Iteration:  2563
 C         2.833432        -1.802659        -0.462229
 C         2.532248        -0.739458         0.563957
 O         3.365783        -0.857390         1.659105
 C         3.434127         0.375111         0.839810
 C         2.669098         1.610253         1.421749
 C         1.386763         1.294415         1.570807
 C         1.089319        -0.080422         0.945426
 C         0.140728         0.242401        -0.128520
 O         0.437047        -1.042291         1.805792
 H         2.045297        -1.954032        -1.286422
 H         3.671689        -1.417576        -1.107399
 H         3.118181        -2.740789        -0.020633
 H         4.463688         0.696242         0.570143
 H         3.212759         2.512430         1.696854
 H         0.659610         2.019623         1.881597
 H         0.502716         0.637903        -1.047757
 H        -0.275647        -0.744140        -0.453981
 H        -0.797361         0.672772         0.260508
 H         1.079568        -0.958551         2.552368
