19
Iteration:  2741
 C         2.714989        -1.610545        -0.694083
 C         2.574680        -0.658890         0.496754
 O         3.284099        -0.821807         1.761059
 C         3.499218         0.353541         1.077453
 C         2.692130         1.553596         1.444632
 C         1.391590         1.292487         1.386445
 C         1.118086        -0.157201         0.888316
 C        -0.028307        -0.071411        -0.188704
 O         0.639318        -0.883557         2.036909
 H         3.489768        -2.424259        -0.699213
 H         1.806744        -2.077895        -1.095614
 H         3.083687        -1.012920        -1.594279
 H         4.513437         0.416990         0.724653
 H         3.242112         2.380387         1.863878
 H         0.723922         2.133036         1.664703
 H         0.014923         0.753543        -0.947132
 H         0.009340        -1.036690        -0.728517
 H        -1.072967         0.015228         0.175873
 H         1.425006        -1.147868         2.447693
