19
Iteration:  1100
 C         2.685730        -1.557882        -0.624044
 C         2.539599        -0.676445         0.497276
 O         3.414826        -0.900816         1.680813
 C         3.575554         0.361515         0.898069
 C         2.747514         1.511847         1.427586
 C         1.485808         1.186005         1.540430
 C         1.096811        -0.140298         0.940596
 C         0.132946        -0.059946        -0.260861
 O         0.284627        -0.795548         2.030369
 H         2.150488        -2.465658        -0.473934
 H         2.286386        -1.057942        -1.456614
 H         3.787783        -1.723587        -0.763999
 H         4.599011         0.344715         0.492838
 H         3.162619         2.364812         2.030918
 H         0.668894         1.668431         2.042816
 H         0.408389         0.879220        -0.633698
 H         0.154705        -0.799448        -0.994757
 H        -0.858854         0.004475        -0.010697
 H         0.838021        -0.443399         2.858583
