19
Iteration:  3320charge 0 multiplicity 1
 C         2.573305        -1.454939        -0.631432
 C         2.515946        -0.616983         0.565587
 O         3.556188        -0.797321         1.605473
 C         3.549335         0.445804         0.798957
 C         2.658681         1.552683         1.312916
 C         1.325667         1.306732         1.488313
 C         1.097989        -0.200647         1.016131
 C         0.015662        -0.299617        -0.126512
 O         0.561044        -0.909756         2.129050
 H         3.500497        -2.104472        -0.679617
 H         1.736211        -2.115027        -0.721004
 H         2.685220        -0.878410        -1.573430
 H         4.439950         0.574612         0.219441
 H         3.031044         2.426016         1.880178
 H         0.558797         1.803625         2.109773
 H         0.381419         0.443105        -0.908340
 H         0.084835        -1.302744        -0.562906
 H        -0.925168        -0.030750         0.342094
 H         1.357343        -1.164046         2.556253
