19
Iteration:  2889charge 0 multiplicity 1
 C         2.623024        -1.798036        -0.462903
 C         2.492623        -0.642745         0.487916
 O         3.567355        -0.642543         1.611460
 C         3.473030         0.526646         0.774064
 C         2.619515         1.546988         1.520897
 C         1.385506         1.147139         1.662527
 C         1.085880        -0.135143         0.937646
 C         0.058585         0.012485        -0.200143
 O         0.561579        -0.993323         1.873504
 H         1.715517        -1.955211        -1.147254
 H         3.439806        -1.770440        -1.126119
 H         2.749073        -2.680539         0.105147
 H         4.409282         0.877444         0.367748
 H         3.098591         2.370227         2.014437
 H         0.551359         1.805644         1.988467
 H         0.549460         0.195051        -1.200351
 H        -0.586077        -0.910402        -0.264644
 H        -0.666213         0.811831        -0.004584
 H         1.384784        -1.320015         2.363261
