19
Iteration:  2670charge 0 multiplicity 1
 C         2.724789        -1.688792        -0.614734
 C         2.510474        -0.612139         0.486490
 O         3.407208        -0.785318         1.729777
 C         3.410316         0.414713         0.865430
 C         2.707460         1.483057         1.576014
 C         1.414355         1.182254         1.568531
 C         1.115141        -0.084165         0.858381
 C         0.078651        -0.059049        -0.262453
 O         0.521607        -0.818574         1.951693
 H         3.518895        -1.535914        -1.378462
 H         3.007176        -2.644281        -0.125420
 H         1.897390        -2.034790        -1.232691
 H         4.401642         0.723740         0.376227
 H         3.173218         2.208657         2.243276
 H         0.533222         1.617641         1.962726
 H         0.457795         0.165601        -1.225956
 H        -0.402081        -1.075013        -0.175698
 H        -0.664039         0.755934        -0.115736
 H         1.241363        -1.009849         2.536441
