19
Iteration:  2080charge 0 multiplicity 1
 C         2.825583        -1.701217        -0.525602
 C         2.468413        -0.590817         0.426883
 O         3.428198        -0.789753         1.650059
 C         3.548542         0.351079         0.925706
 C         2.725056         1.484920         1.505438
 C         1.431072         1.173541         1.587828
 C         1.116751        -0.129102         0.924563
 C         0.032053         0.054099        -0.271263
 O         0.385907        -0.888652         1.942271
 H         2.017140        -2.506436        -0.366283
 H         2.490774        -1.295270        -1.560458
 H         3.826675        -2.108643        -0.529873
 H         4.491228         0.461465         0.288206
 H         3.110611         2.350361         2.062615
 H         0.745188         1.821827         2.155646
 H         0.632405         0.222001        -1.239397
 H        -0.687971        -0.810915        -0.393315
 H        -0.635120         0.917778        -0.053339
 H         0.774731        -0.776612         2.773150
