19
Iteration:  3515
 C         2.795698        -1.649470        -0.543774
 C         2.539332        -0.651200         0.468383
 O         3.516103        -0.712917         1.599090
 C         3.444740         0.479490         0.749648
 C         2.723338         1.556075         1.405642
 C         1.406034         1.292262         1.538920
 C         1.055205        -0.182018         1.050534
 C         0.002686         0.013927        -0.027212
 O         0.437898        -1.105070         1.960901
 H         1.885354        -1.957959        -1.142596
 H         3.485351        -1.618819        -1.342941
 H         2.958907        -2.623796        -0.006817
 H         4.399171         0.700120         0.240484
 H         3.077269         2.547137         1.566116
 H         0.507011         1.804846         1.897088
 H         0.598295         0.242783        -0.982986
 H        -0.537426        -0.900160        -0.296463
 H        -0.773533         0.715231         0.143589
 H         1.094746        -0.998783         2.757533
