19
Iteration:   400charge 0 multiplicity 1
 C         2.413193        -1.829994        -0.531638
 C         2.513083        -0.688929         0.572783
 O         3.444118        -0.835669         1.625051
 C         3.415873         0.483817         0.820730
 C         2.755612         1.614068         1.489377
 C         1.392591         1.386940         1.554146
 C         1.121679        -0.118668         1.015671
 C         0.402391         0.013678        -0.321574
 O         0.433398        -0.967410         1.969561
 H         1.401909        -2.307011        -0.413929
 H         2.568202        -1.512710        -1.563252
 H         3.191404        -2.642480        -0.269542
 H         4.421569         0.572006         0.414808
 H         3.283806         2.477511         1.928456
 H         0.651290         2.018431         2.012450
 H        -0.185969        -0.889606        -0.702169
 H        -0.373501         0.838644        -0.227630
 H         1.190840         0.487612        -0.951721
 H         1.194970        -1.390430         2.564145
