19
Iteration:  3693charge 0 multiplicity 1
 C         2.491062        -1.764629        -0.581527
 C         2.551077        -0.516503         0.371529
 O         3.385111        -0.679709         1.604499
 C         3.501352         0.529879         0.841825
 C         2.638110         1.606834         1.538981
 C         1.348170         1.252851         1.443428
 C         1.159001        -0.104103         0.894347
 C         0.019540        -0.145278        -0.084888
 O         0.784705        -1.085605         2.086596
 H         2.888612        -2.759222        -0.093717
 H         1.414804        -1.895266        -0.907193
 H         3.256215        -1.667074        -1.340731
 H         4.391900         0.643588         0.306820
 H         3.045564         2.505336         1.924973
 H         0.429818         1.737158         1.822017
 H         0.400954         0.342252        -0.944734
 H        -0.202944        -1.226050        -0.269461
 H        -0.934562         0.351452         0.296221
 H         1.662010        -0.957479         2.560775
