19
Iteration:   384charge 0 multiplicity 1
 C         2.427555        -1.776893        -0.433963
 C         2.428617        -0.690795         0.608151
 O         3.457228        -0.844704         1.657170
 C         3.422424         0.384388         0.843013
 C         2.723508         1.656996         1.350541
 C         1.414912         1.240206         1.582270
 C         1.155771        -0.147489         1.045849
 C         0.433801         0.209691        -0.346376
 O         0.439578        -1.031369         1.978907
 H         1.560387        -2.397707        -0.321675
 H         2.352014        -1.297418        -1.427453
 H         3.290562        -2.369420        -0.502287
 H         4.244923         0.417543         0.099042
 H         3.091168         2.697563         1.326423
 H         0.568376         1.897799         1.901130
 H         0.399433        -0.691206        -0.899010
 H        -0.571628         0.586507        -0.354906
 H         1.045253         0.949648        -0.857393
 H         1.151192        -1.163690         2.573845
