19
Iteration:  4030
 C         2.688108        -1.630489        -0.548607
 C         2.484031        -0.619400         0.524211
 O         3.448177        -0.673709         1.559120
 C         3.484839         0.484766         0.744093
 C         2.714908         1.647018         1.360710
 C         1.412360         1.220063         1.541855
 C         1.048801        -0.138898         1.009682
 C         0.110590        -0.149807        -0.100064
 O         0.516115        -1.081060         2.114381
 H         2.468369        -2.558493         0.061722
 H         2.027735        -1.666396        -1.475273
 H         3.682833        -1.689803        -0.998900
 H         4.364682         0.688677         0.048665
 H         2.979627         2.675585         1.627019
 H         0.519693         1.875069         1.745302
 H         0.368208         0.357035        -1.084087
 H        -0.049166        -1.181874        -0.496853
 H        -0.913471         0.154821         0.243076
 H         1.362065        -1.201580         2.674414
