19
Iteration:   780charge 0 multiplicity 1
 C         2.759409        -1.708881        -0.573054
 C         2.453396        -0.655764         0.496343
 O         3.197340        -0.890300         1.707466
 C         3.507882         0.303729         0.922511
 C         2.811861         1.435673         1.596035
 C         1.498835         1.388835         1.369999
 C         1.029932         0.004784         0.843542
 C         0.001146        -0.048857        -0.222117
 O         0.621549        -0.803729         1.955461
 H         1.846488        -2.276297        -0.755168
 H         3.220842        -1.325832        -1.450649
 H         3.506910        -2.434833        -0.125345
 H         4.551201         0.446844         0.640080
 H         3.284333         2.152115         2.278718
 H         0.852072         2.118615         1.876379
 H        -0.182864        -1.038560        -0.529640
 H        -0.918170         0.229789         0.252151
 H         0.149542         0.604784        -1.043515
 H         1.392348        -0.870783         2.545116
