19
Iteration:   231
 C         2.804473        -1.527010        -0.691779
 C         2.492779        -0.736665         0.581828
 O         3.359372        -0.939510         1.750871
 C         3.513344         0.272521         0.862449
 C         2.879798         1.482802         1.470398
 C         1.540631         1.366236         1.336068
 C         1.035082        -0.023198         0.949427
 C        -0.081219        -0.163538        -0.107365
 O         0.375704        -0.761384         2.012483
 H         1.978847        -2.135631        -0.957362
 H         3.041484        -0.944055        -1.544934
 H         3.642673        -2.145169        -0.342727
 H         4.463785         0.336202         0.246010
 H         3.500725         2.235733         1.894302
 H         0.899956         2.184143         1.606273
 H         0.004644        -1.050097        -0.707336
 H        -1.002737        -0.059537         0.430647
 H         0.019350         0.616667        -0.805900
 H         1.025489        -0.747072         2.659121
