19
Iteration:   488charge 0 multiplicity 1
 C         2.823145        -1.472571        -0.642552
 C         2.501232        -0.720579         0.607632
 O         3.102892        -1.064976         1.803541
 C         3.466533         0.266490         1.046901
 C         2.803172         1.584095         1.282642
 C         1.455306         1.291753         1.288155
 C         1.103396        -0.102489         0.875026
 C         0.004146         0.041373        -0.188081
 O         0.626973        -0.826105         2.082793
 H         2.411842        -2.502303        -0.575582
 H         2.435815        -0.977953        -1.524834
 H         3.964305        -1.635967        -0.734669
 H         4.516850         0.106667         0.690177
 H         3.216085         2.534662         1.664797
 H         0.702544         2.010701         1.608853
 H        -0.469936        -0.887061        -0.601289
 H        -0.806650         0.757864         0.150474
 H         0.532035         0.459099        -1.080616
 H         1.487216        -1.140493         2.493281
