19
Iteration:  2235
 C         2.505700        -1.632199        -0.607691
 C         2.494083        -0.660526         0.547093
 O         3.296008        -0.758491         1.725936
 C         3.480451         0.432064         0.848131
 C         2.743862         1.538578         1.517156
 C         1.414454         1.283631         1.587437
 C         1.174301        -0.107788         0.981429
 C         0.307100        -0.074431        -0.304418
 O         0.510714        -1.012794         1.904356
 H         1.643215        -2.254339        -0.577677
 H         2.759184        -1.089146        -1.506425
 H         3.427998        -2.269765        -0.345071
 H         4.427778         0.550946         0.354392
 H         3.262096         2.427770         1.932845
 H         0.679688         1.933466         2.015628
 H         0.628330         0.274053        -1.270865
 H        -0.317837        -0.955171        -0.331666
 H        -0.506746         0.713145        -0.177353
 H         1.207042        -1.211518         2.493203
