19
Iteration:  4209charge 0 multiplicity 1
 C         2.555373        -1.560859        -0.648075
 C         2.537584        -0.625831         0.528950
 O         3.428895        -0.612756         1.563761
 C         3.504434         0.520582         0.737149
 C         2.701468         1.588061         1.462408
 C         1.412061         1.322974         1.477256
 C         1.107695        -0.209218         1.021183
 C         0.005751        -0.387414        -0.171653
 O         0.629891        -0.980743         2.203203
 H         2.712012        -1.258206        -1.623988
 H         3.414704        -2.221069        -0.680952
 H         1.685456        -2.249106        -0.602766
 H         4.402845         0.479193         0.165465
 H         3.146776         2.513682         1.885958
 H         0.538607         1.961065         1.664705
 H         0.159054         0.340388        -0.968303
 H         0.094756        -1.298769        -0.698750
 H        -0.872734        -0.245278         0.398133
 H         1.450405        -1.163104         2.807510
