19
Iteration:  1680charge 0 multiplicity 1
 C         2.587648        -1.624841        -0.523640
 C         2.478791        -0.701978         0.660263
 O         3.507157        -0.775625         1.724322
 C         3.458008         0.393421         0.794488
 C         2.764315         1.579981         1.364555
 C         1.490321         1.180059         1.629925
 C         1.076016        -0.164305         1.041129
 C         0.347843         0.131295        -0.329103
 O         0.221652        -1.003023         1.852193
 H         1.932677        -2.490994        -0.288717
 H         2.279179        -1.282333        -1.553872
 H         3.610717        -1.977843        -0.462683
 H         4.406731         0.403883         0.282784
 H         3.369925         2.412893         1.702395
 H         0.779517         1.904003         2.147172
 H         0.699583         0.962298        -0.958933
 H         0.238423        -0.879399        -0.789738
 H        -0.686320         0.337444        -0.088168
 H         0.828117        -1.324058         2.634378
