19
Iteration:  4256
 C         2.831704        -1.632742        -0.600779
 C         2.541286        -0.602520         0.410463
 O         3.301333        -0.815512         1.663161
 C         3.438694         0.550392         0.816550
 C         2.684451         1.659116         1.266417
 C         1.383805         1.254323         1.394723
 C         1.046523        -0.168321         0.981514
 C        -0.125749        -0.106569         0.039623
 O         0.732325        -1.078711         2.158735
 H         2.414200        -1.543695        -1.581934
 H         3.795235        -1.465792        -0.967650
 H         2.713951        -2.630326        -0.352607
 H         4.511326         0.680607         0.461472
 H         3.057196         2.675214         1.327721
 H         0.593519         1.959635         1.640151
 H        -0.061402         0.470674        -0.865457
 H        -0.381614        -1.132370        -0.276371
 H        -0.865953         0.304836         0.738187
 H         1.636135        -1.325468         2.527733
