19
Iteration:  1262charge 0 multiplicity 1
 C         2.971860        -1.606727        -0.653766
 C         2.431130        -0.763275         0.532234
 O         3.353863        -0.807381         1.624073
 C         3.417158         0.312937         0.798755
 C         2.774561         1.423075         1.544984
 C         1.453301         1.199155         1.572143
 C         1.048467        -0.139133         0.962621
 C         0.099160         0.072065        -0.222661
 O         0.350442        -0.814554         2.035023
 H         2.553260        -2.615044        -0.753225
 H         2.761934        -1.091246        -1.565352
 H         4.145468        -1.720109        -0.523257
 H         4.322984         0.466055         0.247689
 H         3.350318         2.341252         1.553584
 H         0.714681         1.689744         2.181574
 H         0.674852         0.338624        -1.154388
 H        -0.528699        -0.856289        -0.200095
 H        -0.800127         0.915093        -0.149630
 H         0.739905        -0.368124         2.907906
