19
Iteration:  4207charge 0 multiplicity 1
 C         2.549542        -1.558852        -0.619108
 C         2.552218        -0.624330         0.511208
 O         3.430766        -0.616736         1.545087
 C         3.511067         0.524250         0.741203
 C         2.697706         1.598708         1.472799
 C         1.414492         1.326762         1.493322
 C         1.099448        -0.214886         1.021112
 C         0.016764        -0.403659        -0.175056
 O         0.624629        -0.971609         2.202719
 H         2.709573        -1.253959        -1.663673
 H         3.464562        -2.277280        -0.685617
 H         1.625910        -2.262508        -0.653891
 H         4.361888         0.480656         0.138539
 H         3.183471         2.539962         1.880407
 H         0.564325         1.991007         1.714062
 H         0.154339         0.391478        -0.988159
 H         0.086635        -1.386169        -0.649976
 H        -0.954859        -0.234282         0.313788
 H         1.388846        -1.208324         2.789700
