19
Iteration:  4581
 C         2.575537        -1.712628        -0.577336
 C         2.523250        -0.598180         0.485848
 O         3.440183        -0.747869         1.605190
 C         3.456531         0.472393         0.829617
 C         2.683413         1.618537         1.366898
 C         1.406841         1.373561         1.512451
 C         1.117962        -0.139205         0.961200
 C         0.029224        -0.209310        -0.100943
 O         0.662842        -0.987933         2.063217
 H         2.408495        -2.705050        -0.182312
 H         1.769200        -1.703098        -1.312836
 H         3.519841        -1.816745        -1.088099
 H         4.324095         0.708045         0.268823
 H         3.199823         2.576507         1.569739
 H         0.501532         1.839211         1.938711
 H         0.073068         0.671247        -0.857711
 H         0.106204        -1.157045        -0.637809
 H        -0.884389        -0.164072         0.605084
 H         1.388424        -1.000700         2.767546
