19
Iteration:  3078
 C         2.627555        -1.618803        -0.656267
 C         2.480043        -0.717883         0.530478
 O         3.457420        -0.893078         1.682042
 C         3.502640         0.439424         0.853960
 C         2.617663         1.660563         1.375141
 C         1.333845         1.336917         1.517206
 C         1.080930        -0.129491         1.043414
 C         0.153977        -0.091486        -0.131195
 O         0.605006        -0.965428         1.992928
 H         2.001675        -1.360576        -1.430518
 H         3.730237        -1.566624        -0.956623
 H         2.467215        -2.672209        -0.284448
 H         4.482954         0.590250         0.351316
 H         2.958075         2.678606         1.501270
 H         0.479305         2.029416         1.712287
 H         0.483437         0.628675        -0.921349
 H         0.133282        -1.132801        -0.580092
 H        -0.925056         0.185090         0.196776
 H         1.193217        -1.066439         2.722929
