19
Iteration:  1057charge 0 multiplicity 1
 C         2.597140        -1.596425        -0.554255
 C         2.454402        -0.562180         0.488197
 O         3.249093        -0.903758         1.718097
 C         3.529989         0.333655         1.023396
 C         2.761305         1.507727         1.543652
 C         1.446778         1.388058         1.421453
 C         1.072609        -0.030693         0.909040
 C         0.043028        -0.042455        -0.271828
 O         0.699801        -0.975736         1.922081
 H         1.898204        -2.392244        -0.411601
 H         2.440474        -1.232336        -1.530291
 H         3.630329        -2.060685        -0.592219
 H         4.532521         0.428639         0.549866
 H         3.285058         2.105115         2.294603
 H         0.791990         2.169929         1.739259
 H         0.573701        -0.072762        -1.201391
 H        -0.505950        -0.970016        -0.204346
 H        -0.651267         0.724429        -0.256221
 H         1.517341        -1.464966         2.155410
