19
Iteration:   528charge 0 multiplicity 1
 C         2.595113        -1.615890        -0.696766
 C         2.433582        -0.654359         0.492517
 O         3.294601        -0.953595         1.685098
 C         3.507557         0.331029         1.063789
 C         2.913153         1.527755         1.662703
 C         1.522842         1.352117         1.370933
 C         1.130392        -0.068993         0.857695
 C         0.155759        -0.262325        -0.242612
 O         0.416637        -0.636251         1.970963
 H         1.942286        -2.465033        -0.559537
 H         2.182646        -1.137825        -1.560344
 H         3.611056        -1.909056        -0.878510
 H         4.519671         0.527827         0.694675
 H         3.348606         2.373762         2.269614
 H         0.636607         1.943311         1.684478
 H         0.316763        -1.205116        -0.719678
 H        -0.712778        -0.341060         0.331239
 H         0.044690         0.499012        -0.974401
 H         1.187131        -1.020754         2.615873
