19
Iteration:  3085
 C         2.641319        -1.557736        -0.616662
 C         2.477760        -0.669163         0.580509
 O         3.459718        -0.880123         1.709336
 C         3.433065         0.414888         0.878240
 C         2.637598         1.660117         1.273653
 C         1.378387         1.303088         1.467223
 C         1.133046        -0.124854         1.023178
 C         0.149956        -0.046069        -0.069302
 O         0.570852        -1.047785         1.954453
 H         1.932382        -1.341619        -1.490084
 H         3.671353        -1.683388        -0.850195
 H         2.366408        -2.530144        -0.241858
 H         4.395814         0.589590         0.365345
 H         3.038672         2.685910         1.424722
 H         0.517096         1.817541         1.832933
 H         0.378524         0.562650        -0.941563
 H         0.057997        -1.024855        -0.502469
 H        -0.794365         0.267771         0.299110
 H         1.296949        -1.132318         2.544225
