19
Iteration:  4804charge 0 multiplicity 1
 C         2.598894        -1.491103        -0.685942
 C         2.527619        -0.600396         0.515542
 O         3.294367        -0.947792         1.694837
 C         3.449667         0.432144         0.994448
 C         2.753680         1.641598         1.410708
 C         1.454959         1.387448         1.311778
 C         1.113712        -0.120411         0.890609
 C         0.030589        -0.440079        -0.079658
 O         0.693667        -0.799329         2.100502
 H         3.591832        -1.935124        -0.800541
 H         1.857964        -2.202926        -0.759903
 H         2.355332        -1.029810        -1.661686
 H         4.451759         0.572209         0.669288
 H         3.197006         2.610628         1.566803
 H         0.644055         2.023550         1.719583
 H         0.224610        -0.260936        -1.112208
 H        -0.343354        -1.463277         0.188794
 H        -0.919989         0.124660         0.077313
 H         1.547498        -1.059053         2.601784
