19
Iteration:  3696
 C         2.518905        -1.799455        -0.595660
 C         2.563357        -0.527846         0.364991
 O         3.393926        -0.674061         1.608846
 C         3.457449         0.541930         0.865204
 C         2.654365         1.590828         1.514866
 C         1.347418         1.236931         1.451893
 C         1.163341        -0.088211         0.902286
 C         0.006706        -0.146415        -0.053144
 O         0.776154        -1.067982         2.058616
 H         2.775544        -2.623615        -0.033343
 H         1.492771        -1.888382        -0.916069
 H         3.257611        -1.655962        -1.347911
 H         4.368950         0.716328         0.276933
 H         3.105619         2.500414         1.979469
 H         0.414408         1.696024         1.791838
 H         0.359768         0.341704        -0.943321
 H        -0.280853        -1.157111        -0.292449
 H        -0.855738         0.352543         0.349050
 H         1.671625        -0.965487         2.547239
