19
Iteration:  4261charge 0 multiplicity 1
 C         2.846329        -1.641984        -0.601564
 C         2.542712        -0.565998         0.400402
 O         3.285290        -0.782681         1.648657
 C         3.431060         0.521094         0.802664
 C         2.710504         1.661537         1.295806
 C         1.392546         1.263802         1.358100
 C         1.070613        -0.199848         1.005966
 C        -0.156098        -0.101342         0.070453
 O         0.711943        -1.090377         2.149541
 H         2.277757        -1.519865        -1.596128
 H         3.930481        -1.427624        -0.999085
 H         2.855137        -2.742467        -0.183152
 H         4.396311         0.570293         0.412065
 H         3.060736         2.696517         1.450426
 H         0.608792         1.967123         1.684323
 H         0.152805         0.421875        -0.903868
 H        -0.379055        -1.137286        -0.237120
 H        -0.981304         0.320963         0.681890
 H         1.628773        -1.296528         2.440254
