19
Iteration:  1891
 C         2.646042        -1.355718        -0.691735
 C         2.491353        -0.612758         0.562298
 O         3.178831        -0.995886         1.805134
 C         3.505574         0.278090         1.064514
 C         2.846115         1.483205         1.482573
 C         1.493207         1.410378         1.302310
 C         1.034501        -0.088760         0.914568
 C         0.111426        -0.225647        -0.217053
 O         0.583144        -0.891887         1.976675
 H         1.933496        -2.038133        -1.111147
 H         2.745953        -0.557136        -1.413313
 H         3.643152        -1.899975        -0.654637
 H         4.540747         0.210487         0.757648
 H         3.422681         2.364616         1.713233
 H         0.853304         2.292340         1.509583
 H         0.566721        -0.169455        -1.196625
 H        -0.469615        -1.126317        -0.110838
 H        -0.694213         0.512212        -0.092697
 H         1.280308        -0.924481         2.587938
