19
Iteration:  4263charge 0 multiplicity 1
 C         2.861312        -1.646219        -0.616546
 C         2.535817        -0.555435         0.408248
 O         3.280535        -0.761409         1.637721
 C         3.430513         0.493647         0.796592
 C         2.705427         1.665790         1.311504
 C         1.400845         1.276849         1.347331
 C         1.086689        -0.211003         1.015206
 C        -0.166071        -0.105720         0.083014
 O         0.701625        -1.089384         2.135421
 H         2.191417        -1.527748        -1.513912
 H         3.948850        -1.444374        -0.955118
 H         2.899081        -2.716998        -0.115154
 H         4.413876         0.518604         0.349669
 H         3.061175         2.648082         1.517246
 H         0.620162         1.941686         1.708904
 H         0.222674         0.396522        -0.830062
 H        -0.405761        -1.119139        -0.204099
 H        -1.035529         0.324204         0.586686
 H         1.672774        -1.290651         2.442010
