19
Iteration:  2198
 C         2.905494        -1.587605        -0.653639
 C         2.613761        -0.662479         0.540599
 O         3.363028        -0.952452         1.635022
 C         3.528232         0.396663         0.942525
 C         2.742887         1.503449         1.523296
 C         1.416476         1.327644         1.446007
 C         1.072095        -0.090168         0.882758
 C        -0.131096        -0.045961        -0.250848
 O         0.413200        -0.871313         2.072673
 H         2.138644        -2.301503        -1.044407
 H         3.286699        -1.101292        -1.566009
 H         3.676320        -2.186564        -0.309637
 H         4.559745         0.488316         0.499412
 H         3.239789         2.311252         2.025796
 H         0.615329         1.990099         1.880426
 H         0.269046         0.175262        -1.245141
 H        -0.704445        -0.978768        -0.319937
 H        -0.688179         0.699378         0.227778
 H         0.969434        -0.885051         2.859738
