19
Iteration:  3955charge 0 multiplicity 1
 C         2.764090        -1.684517        -0.485732
 C         2.506767        -0.581517         0.468171
 O         3.384767        -0.827776         1.545336
 C         3.445867         0.505465         0.832585
 C         2.641026         1.567051         1.436398
 C         1.351694         1.294884         1.481974
 C         1.080604        -0.082296         0.953108
 C        -0.076464        -0.137783        -0.142213
 O         0.755021        -0.952837         2.071044
 H         3.264912        -2.545746        -0.066205
 H         1.866368        -2.142330        -1.019862
 H         3.358479        -1.280395        -1.328329
 H         4.349416         0.677251         0.176894
 H         3.048170         2.345865         2.071647
 H         0.553271         1.867059         1.947513
 H         0.137255        -0.247112        -1.258771
 H        -0.465219        -1.168438        -0.047974
 H        -0.944134         0.558862        -0.001533
 H         1.597677        -1.012418         2.630530
