19
Iteration:  2558charge 0 multiplicity 1
 C         2.855444        -1.821825        -0.478916
 C         2.508249        -0.688089         0.552195
 O         3.390055        -0.917937         1.643982
 C         3.419999         0.464702         0.856018
 C         2.679163         1.621442         1.440804
 C         1.373359         1.257620         1.541229
 C         1.102034        -0.107982         0.934602
 C         0.092708         0.204783        -0.164806
 O         0.449504        -0.993963         1.831064
 H         1.986674        -1.972079        -1.064582
 H         3.627649        -1.409047        -1.103627
 H         3.127308        -2.765906         0.090728
 H         4.485852         0.555071         0.576534
 H         3.332438         2.372861         1.934127
 H         0.641315         2.021736         1.942916
 H         0.583590         0.679013        -1.064300
 H        -0.336544        -0.768549        -0.393192
 H        -0.731769         0.882400         0.144792
 H         1.033493        -1.047166         2.653428
