19
Iteration:   956
 C         2.555318        -1.755017        -0.649445
 C         2.535382        -0.726388         0.539265
 O         3.420684        -0.776884         1.701168
 C         3.445917         0.454089         0.857847
 C         2.729869         1.587281         1.554067
 C         1.461307         1.254478         1.640638
 C         1.133850        -0.105806         1.003000
 C         0.298775         0.043331        -0.271780
 O         0.372250        -0.980128         1.875362
 H         1.895358        -2.621329        -0.428376
 H         1.965289        -1.302810        -1.510894
 H         3.460566        -2.161664        -0.962820
 H         4.388152         0.660726         0.310910
 H         3.365340         2.447566         1.856530
 H         0.614227         1.945706         1.941185
 H         0.892330         0.429698        -1.079780
 H        -0.186596        -0.882588        -0.521903
 H        -0.414478         0.861305        -0.100253
 H         0.967217        -1.157660         2.691082
