19
Iteration:  1024
 C         2.834403        -1.768331        -0.656172
 C         2.551437        -0.633138         0.448770
 O         3.250777        -0.839727         1.711651
 C         3.532129         0.371687         1.024156
 C         2.726215         1.521983         1.473370
 C         1.419189         1.229681         1.541023
 C         1.144293        -0.057673         0.858500
 C        -0.058854         0.092809        -0.088428
 O         0.566683        -0.923960         1.829521
 H         2.040188        -2.478156        -0.608589
 H         2.726800        -1.321283        -1.623423
 H         3.811668        -2.285922        -0.503080
 H         4.597848         0.459532         0.686747
 H         3.126891         2.336060         2.020864
 H         0.593480         1.836620         1.869570
 H         0.140761        -0.099519        -1.114059
 H        -0.805610        -0.567023         0.255739
 H        -0.475455         1.067478        -0.080891
 H         0.939820        -0.683097         2.716471
