19
Iteration:  3328charge 0 multiplicity 1
 C         2.673602        -1.488760        -0.691242
 C         2.527431        -0.672840         0.597478
 O         3.554738        -0.733107         1.598381
 C         3.569131         0.449770         0.796151
 C         2.651810         1.528942         1.363349
 C         1.360953         1.203688         1.481169
 C         1.005759        -0.217262         1.013967
 C        -0.015561        -0.242705        -0.127942
 O         0.552265        -0.874935         2.150978
 H         3.644255        -1.968269        -0.707849
 H         1.878515        -2.348429        -0.672460
 H         2.441647        -0.795154        -1.629394
 H         4.471145         0.631036         0.212704
 H         3.041764         2.593384         1.563447
 H         0.792671         1.927392         2.041480
 H         0.279607         0.521649        -0.843354
 H        -0.217963        -1.223007        -0.610580
 H        -1.022412         0.041840         0.289376
 H         1.267848        -1.248603         2.676691
