19
Iteration:  2505charge 0 multiplicity 1
 C         2.594654        -1.595522        -0.662118
 C         2.495515        -0.657034         0.527294
 O         3.310668        -0.918370         1.743508
 C         3.492121         0.403924         0.930210
 C         2.741489         1.599576         1.639206
 C         1.417296         1.383637         1.493804
 C         1.102807        -0.098571         0.869668
 C         0.216052        -0.200063        -0.281522
 O         0.519709        -0.883196         1.893061
 H         1.624558        -1.674935        -1.004139
 H         3.318731        -1.240546        -1.390225
 H         2.875107        -2.556178        -0.103806
 H         4.437772         0.404870         0.305981
 H         3.339858         2.467717         2.038080
 H         0.759059         1.959654         2.249161
 H         0.727285         0.080956        -1.194983
 H        -0.094519        -1.213213        -0.236703
 H        -0.565053         0.545027        -0.172088
 H         1.127653        -0.847915         2.622809
