19
Iteration:   356
 C         2.648271        -1.852345        -0.399946
 C         2.501388        -0.725203         0.596311
 O         3.384633        -0.698763         1.770900
 C         3.492170         0.345335         0.710052
 C         2.796700         1.546057         1.274521
 C         1.541130         1.241925         1.635556
 C         1.143881        -0.134871         0.953876
 C         0.150685         0.285266        -0.170202
 O         0.310170        -1.030849         1.792448
 H         2.078873        -2.754039        -0.052161
 H         2.179571        -1.511957        -1.349231
 H         3.698976        -2.137459        -0.646356
 H         4.425065         0.352202         0.204280
 H         3.363533         2.406032         1.555491
 H         0.955413         1.839417         2.314956
 H         0.076225        -0.521733        -0.946102
 H        -0.899019         0.370797         0.185090
 H         0.423690         1.273551        -0.610564
 H         0.846639        -0.987023         2.624471
