19
Iteration:  1763
 C         2.567716        -1.814770        -0.432944
 C         2.491946        -0.691167         0.616303
 O         3.354588        -0.778826         1.771701
 C         3.443027         0.425589         0.836743
 C         2.727636         1.618545         1.397956
 C         1.481833         1.170588         1.591057
 C         1.107817        -0.086941         0.947965
 C         0.280482         0.267942        -0.245995
 O         0.505844        -1.107397         1.738234
 H         2.179651        -2.804059        -0.024574
 H         1.813760        -1.372215        -1.197651
 H         3.487538        -1.946048        -1.042755
 H         4.352599         0.477867         0.259973
 H         3.069130         2.613928         1.793443
 H         0.680122         1.695258         2.170963
 H         0.874509         0.679715        -1.123227
 H        -0.257908        -0.675779        -0.616161
 H        -0.453577         1.048589        -0.017858
 H         0.844678        -1.089569         2.603873
