19
Iteration:  3115
 C         2.706577        -1.687394        -0.600980
 C         2.534496        -0.633057         0.595470
 O         3.341369        -0.550230         1.786378
 C         3.558601         0.410293         0.726009
 C         2.777398         1.626610         1.295524
 C         1.488675         1.213724         1.566595
 C         1.053448        -0.176052         1.000956
 C        -0.072765         0.042902        -0.047984
 O         0.538939        -1.223239         1.886693
 H         2.562210        -1.340743        -1.722939
 H         3.658270        -2.170430        -0.605377
 H         1.955055        -2.480619        -0.512454
 H         4.601468         0.489331         0.484061
 H         2.992485         2.702397         1.448695
 H         0.709629         1.853509         1.921532
 H         0.396153         0.540566        -0.910210
 H        -0.456581        -0.913768        -0.397712
 H        -0.916972         0.594394         0.275328
 H         1.417071        -1.331410         2.326778
