19
Iteration:  4926
 C         2.533783        -1.844320        -0.361784
 C         2.513743        -0.597488         0.502658
 O         3.442163        -0.685839         1.633709
 C         3.481829         0.501267         0.693288
 C         2.639745         1.691975         1.267906
 C         1.402708         1.256258         1.662037
 C         1.095984        -0.125808         1.013766
 C         0.203680         0.030276        -0.152311
 O         0.582738        -1.152014         1.911313
 H         3.400708        -1.984113        -0.950066
 H         2.299796        -2.647211         0.298543
 H         1.721571        -1.904259        -1.092356
 H         4.435792         0.580441         0.126919
 H         3.092613         2.662188         1.515625
 H         0.685694         1.810831         2.244928
 H         0.579702         0.657842        -0.933234
 H        -0.066759        -0.965496        -0.506499
 H        -0.698969         0.625788        -0.012235
 H         1.258276        -1.242736         2.576557
