19
Iteration:  2307charge 0 multiplicity 1
 C         2.876707        -1.905109        -0.393219
 C         2.466889        -0.716476         0.529476
 O         3.371017        -0.705774         1.664377
 C         3.515180         0.468889         0.798879
 C         2.777973         1.600390         1.448824
 C         1.568918         1.159791         1.651530
 C         1.052245        -0.130534         0.884715
 C         0.012315         0.285351        -0.293955
 O         0.294119        -1.030435         1.837250
 H         2.964666        -2.860892         0.206810
 H         2.084885        -1.957293        -1.171974
 H         3.798402        -1.684771        -0.883501
 H         4.567536         0.319409         0.433293
 H         3.380667         2.356725         1.951060
 H         0.944918         1.653938         2.393660
 H         0.155912         1.324448        -0.777228
 H        -0.214526        -0.548488        -0.966105
 H        -0.908826         0.441808         0.268115
 H         0.893878        -1.279330         2.494660
