19
Iteration:  1384charge 0 multiplicity 1
 C         2.815655        -1.704489        -0.592420
 C         2.549048        -0.760599         0.584813
 O         3.437398        -0.794373         1.681996
 C         3.541564         0.371881         0.820483
 C         2.771641         1.489496         1.423711
 C         1.408360         1.205909         1.559739
 C         1.051037        -0.131466         1.000831
 C         0.089637         0.186034        -0.235742
 O         0.254926        -0.903078         1.968444
 H         2.273978        -2.652620        -0.568921
 H         2.602392        -1.218044        -1.562487
 H         3.883406        -1.812505        -0.565126
 H         4.492451         0.497258         0.218845
 H         3.308082         2.320122         1.931510
 H         0.627983         1.832245         2.115877
 H         0.513223         0.530681        -1.201018
 H        -0.308541        -0.763508        -0.554896
 H        -0.623670         0.959046         0.089456
 H         0.982447        -1.284746         2.455952
