19
Iteration:  2729charge 0 multiplicity 1
 C         2.755555        -1.498127        -0.681505
 C         2.530523        -0.690223         0.558478
 O         3.283151        -0.934911         1.782513
 C         3.509632         0.345133         1.034029
 C         2.703305         1.537041         1.352538
 C         1.366667         1.340785         1.342388
 C         1.081453        -0.087979         0.935542
 C         0.031117        -0.097616        -0.108486
 O         0.627921        -0.928111         1.934152
 H         3.689113        -2.141211        -0.446129
 H         1.876890        -2.152246        -0.706430
 H         2.819294        -0.815005        -1.553767
 H         4.494914         0.510540         0.691204
 H         3.157648         2.507175         1.552077
 H         0.474499         1.915563         1.699061
 H         0.419308         0.680074        -0.823697
 H        -0.286302        -1.022211        -0.641453
 H        -0.799267         0.288285         0.479936
 H         1.396795        -1.025704         2.587586
