19
Iteration:   478charge 0 multiplicity 1
 C         2.890060        -1.573082        -0.634228
 C         2.498557        -0.694559         0.475019
 O         3.118385        -1.008267         1.793784
 C         3.431971         0.267451         1.061811
 C         2.779136         1.567106         1.330748
 C         1.501033         1.335282         1.319887
 C         1.111555        -0.155277         0.938960
 C        -0.001844         0.063739        -0.134191
 O         0.578838        -0.825704         2.025922
 H         2.380003        -2.569939        -0.692192
 H         2.776334        -1.049839        -1.613233
 H         4.055653        -1.643678        -0.467434
 H         4.443177         0.218628         0.542538
 H         3.251843         2.541068         1.501872
 H         0.615638         1.947381         1.412335
 H        -0.747635        -0.824813        -0.137671
 H        -0.583280         0.991459         0.286039
 H         0.341041         0.424695        -1.163552
 H         1.337501        -1.293810         2.427528
