19
Iteration:    59charge 0 multiplicity 1
 C         2.536578        -1.876993        -0.362599
 C         2.505873        -0.703196         0.551936
 O         3.333952        -0.621906         1.736429
 C         3.476563         0.441135         0.759342
 C         2.705443         1.602761         1.376579
 C         1.527501         1.083514         1.684963
 C         1.196450        -0.116752         0.950763
 C         0.190059         0.247921        -0.252547
 O         0.496754        -1.054780         1.760036
 H         2.064136        -2.654228         0.244443
 H         2.041019        -1.630773        -1.303358
 H         3.531709        -2.319916        -0.648658
 H         4.348282         0.542126         0.054235
 H         3.138542         2.614752         1.384400
 H         0.693079         1.684251         2.113927
 H        -0.300864        -0.664460        -0.683894
 H        -0.659795         0.707796         0.322689
 H         0.642337         0.905336        -1.010571
 H         1.110990        -1.364233         2.578164
