19
Iteration:  1577
 C         2.684089        -1.539083        -0.707262
 C         2.513511        -0.677102         0.518533
 O         3.301734        -1.070802         1.628842
 C         3.527677         0.319817         1.089247
 C         2.766054         1.469577         1.622167
 C         1.444406         1.317048         1.393348
 C         1.112749         0.009726         0.907214
 C         0.099581        -0.182810        -0.306446
 O         0.454672        -0.668587         2.051453
 H         2.246987        -2.585441        -0.599217
 H         2.455577        -1.058939        -1.686594
 H         3.797018        -1.855516        -0.920091
 H         4.553839         0.539298         0.704288
 H         3.149438         2.322417         2.119425
 H         0.826161         2.107648         1.697329
 H         0.639783         0.348292        -1.152380
 H         0.006427        -1.246234        -0.561773
 H        -0.936572         0.273329        -0.055548
 H         0.935761        -0.491052         2.871484
