19
Iteration:  1494charge 0 multiplicity 1
 C         2.684799        -1.851091        -0.436434
 C         2.490804        -0.611533         0.433530
 O         3.249410        -0.804069         1.669402
 C         3.552037         0.312109         0.937036
 C         2.812183         1.551571         1.590159
 C         1.451294         1.291616         1.529956
 C         1.129055        -0.019370         0.833798
 C         0.020493         0.152586        -0.207477
 O         0.581123        -0.996528         1.790044
 H         1.857382        -2.551119        -0.322337
 H         2.625068        -1.554966        -1.524269
 H         3.600288        -2.232037        -0.200294
 H         4.644452         0.337083         0.626987
 H         3.193758         2.403439         2.126886
 H         0.626702         1.865816         1.857335
 H         0.203636         0.831746        -1.034764
 H        -0.445949        -0.801399        -0.462876
 H        -0.729962         0.684221         0.310715
 H         1.010606        -0.952867         2.593710
