19
Iteration:  4421charge 0 multiplicity 1
 C         2.641171        -1.739725        -0.427891
 C         2.502584        -0.582666         0.458890
 O         3.474690        -0.714444         1.589951
 C         3.480892         0.531883         0.713075
 C         2.632768         1.605111         1.235521
 C         1.343127         1.243139         1.562415
 C         1.062362        -0.112859         1.025761
 C        -0.091135        -0.070177         0.033316
 O         0.787120        -1.124293         1.987199
 H         3.123082        -1.412551        -1.386157
 H         3.472247        -2.259848         0.122824
 H         1.669781        -2.297822        -0.505073
 H         4.387087         0.680167         0.190370
 H         3.100079         2.596784         1.353176
 H         0.559644         1.967423         1.838242
 H         0.120921         0.680247        -0.781092
 H        -0.435127        -0.897460        -0.716725
 H        -1.109213         0.217846         0.529843
 H         1.630665        -1.221185         2.404416
