19
Iteration:  2259charge 0 multiplicity 1
 C         2.485634        -1.706536        -0.424084
 C         2.521272        -0.614534         0.590730
 O         3.422760        -0.864683         1.676676
 C         3.517412         0.434710         0.934385
 C         2.720422         1.646831         1.418629
 C         1.414883         1.292036         1.585422
 C         1.095981        -0.058310         0.977395
 C         0.202164         0.073750        -0.324364
 O         0.506658        -1.135233         1.828038
 H         1.892938        -2.488571         0.061667
 H         2.201335        -1.346195        -1.421356
 H         3.561418        -2.111906        -0.428173
 H         4.349217         0.482044         0.239219
 H         3.286777         2.539895         1.725293
 H         0.619012         1.953090         1.961576
 H         0.709347         0.899238        -0.829448
 H         0.021445        -0.807782        -0.988480
 H        -0.772889         0.680914        -0.345515
 H         1.327146        -1.491343         2.353720
