19
Iteration:   805
 C         2.724240        -1.697540        -0.626095
 C         2.515845        -0.629061         0.447815
 O         3.357094        -0.948823         1.639475
 C         3.543921         0.349907         0.949227
 C         2.792707         1.530230         1.584731
 C         1.503055         1.222192         1.598460
 C         1.124771        -0.058141         0.837573
 C         0.039922        -0.146961        -0.307638
 O         0.372953        -0.593376         2.019008
 H         1.798718        -2.249769        -0.655651
 H         3.014961        -1.325615        -1.643560
 H         3.435871        -2.357954        -0.320030
 H         4.581992         0.528768         0.699229
 H         3.373829         2.358820         1.935710
 H         0.678919         1.736583         2.014920
 H        -0.494263        -0.992005         0.078037
 H        -0.705427         0.631193        -0.241106
 H         0.313847        -0.346589        -1.324200
 H         0.945728        -1.013429         2.609774
