19
Iteration:  1074charge 0 multiplicity 1
 C         2.559754        -1.617296        -0.690929
 C         2.458871        -0.650771         0.495595
 O         3.316798        -0.916087         1.745025
 C         3.463257         0.349867         0.953346
 C         2.763941         1.516185         1.603097
 C         1.414602         1.381287         1.483900
 C         1.132439        -0.019862         0.926506
 C         0.239450        -0.124936        -0.246334
 O         0.554539        -0.889465         1.943569
 H         1.912815        -2.520389        -0.507729
 H         2.183836        -1.115320        -1.653209
 H         3.578023        -1.901826        -0.794593
 H         4.473712         0.408515         0.542693
 H         3.261225         2.443395         1.793155
 H         0.573243         1.984333         1.868535
 H         0.767708         0.367263        -1.087249
 H        -0.150506        -1.159827        -0.400275
 H        -0.747947         0.481048        -0.121858
 H         1.377293        -0.980934         2.545876
