19
Iteration:   379charge 0 multiplicity 1
 C         2.446360        -1.771086        -0.422249
 C         2.419773        -0.657999         0.624946
 O         3.459086        -0.826315         1.677798
 C         3.451917         0.372051         0.820314
 C         2.704155         1.590162         1.303441
 C         1.421036         1.211147         1.597891
 C         1.137818        -0.134893         1.054801
 C         0.418934         0.244577        -0.332085
 O         0.441631        -1.022683         1.948131
 H         1.582065        -2.486049        -0.297003
 H         2.287945        -1.257337        -1.378221
 H         3.436596        -2.358388        -0.529362
 H         4.286121         0.331335         0.124470
 H         3.037124         2.623343         1.281926
 H         0.594527         1.825089         1.890148
 H         0.430644        -0.706327        -0.949418
 H        -0.674257         0.547682        -0.323914
 H         1.005366         1.087869        -0.752499
 H         1.162034        -1.143513         2.661585
