19
Iteration:  2410
 C         2.778465        -1.715114        -0.599630
 C         2.485869        -0.626944         0.465109
 O         3.262716        -0.880334         1.663246
 C         3.494568         0.392007         0.977365
 C         2.779210         1.594911         1.598496
 C         1.460423         1.395704         1.530746
 C         1.080091        -0.091380         0.863404
 C         0.043391        -0.054578        -0.223390
 O         0.507987        -0.959907         1.938765
 H         1.851414        -2.250703        -0.769382
 H         3.193701        -1.252311        -1.540894
 H         3.542062        -2.332586        -0.037905
 H         4.530868         0.591738         0.612791
 H         3.391400         2.395437         1.995253
 H         0.736107         2.266536         1.663549
 H         0.274230         0.545784        -1.116434
 H        -0.169520        -1.088485        -0.669667
 H        -0.957255         0.379918         0.086470
 H         1.364886        -1.414964         2.300185
