19
Iteration:  2705charge 0 multiplicity 1
 C         2.803325        -1.475077        -0.658125
 C         2.527366        -0.699094         0.595989
 O         3.211670        -0.937545         1.736455
 C         3.501976         0.441606         0.939912
 C         2.809788         1.619506         1.336568
 C         1.484884         1.318749         1.423871
 C         1.053045        -0.139900         1.015517
 C         0.035312        -0.068116        -0.180838
 O         0.504194        -1.035570         1.975000
 H         3.971856        -1.386344        -0.785417
 H         2.505125        -2.500896        -0.377231
 H         2.190668        -1.002036        -1.401084
 H         4.454065         0.535635         0.415941
 H         3.370615         2.516710         1.657526
 H         0.661820         2.023411         1.586651
 H         0.482422         0.065073        -1.199566
 H        -0.490381        -1.066119        -0.222402
 H        -0.751306         0.615918         0.110703
 H         1.117187        -1.080002         2.660399
