19
Iteration:  3794charge 0 multiplicity 1
 C         2.491260        -1.672203        -0.552043
 C         2.499734        -0.582588         0.546859
 O         3.530139        -0.670511         1.565266
 C         3.505528         0.528740         0.796569
 C         2.609206         1.598015         1.354799
 C         1.329180         1.232041         1.515159
 C         1.153310        -0.172869         1.043379
 C         0.098596        -0.164554        -0.200736
 O         0.642077        -1.083891         2.110527
 H         1.488338        -2.030676        -0.549572
 H         2.673150        -1.185212        -1.608164
 H         3.311897        -2.370500        -0.279442
 H         4.345307         0.845543         0.081333
 H         3.101884         2.585815         1.490161
 H         0.526505         1.647669         2.081264
 H         0.493895         0.590812        -0.932952
 H        -0.150860        -1.080337        -0.682222
 H        -0.691031         0.295777         0.334971
 H         1.471365        -1.295546         2.705706
