19
Iteration:    68
 C         2.648160        -1.911585        -0.365515
 C         2.490790        -0.706010         0.506140
 O         3.325080        -0.655502         1.670153
 C         3.422688         0.443523         0.701686
 C         2.710854         1.577573         1.362325
 C         1.487813         1.136162         1.738598
 C         1.125838        -0.175230         0.959852
 C         0.233900         0.267456        -0.224775
 O         0.469403        -0.979713         1.830003
 H         2.115245        -2.759368         0.075568
 H         2.184056        -1.832129        -1.312916
 H         3.760353        -2.166967        -0.475505
 H         4.331920         0.436473         0.106543
 H         3.019812         2.612037         1.619027
 H         0.706259         1.527263         2.431453
 H        -0.091259        -0.587798        -0.857767
 H        -0.664680         0.857888         0.056950
 H         0.840199         0.869340        -0.876661
 H         1.202046        -1.240284         2.585070
