19
Iteration:  2684charge 0 multiplicity 1
 C         2.773658        -1.632756        -0.690010
 C         2.456484        -0.625345         0.394765
 O         3.359454        -0.766171         1.792644
 C         3.523229         0.318548         0.933308
 C         2.727100         1.526628         1.480610
 C         1.398828         1.273216         1.541030
 C         1.090065        -0.084700         0.935220
 C         0.073287        -0.078976        -0.202502
 O         0.469040        -0.905272         1.975091
 H         3.801144        -1.170404        -1.136007
 H         2.924818        -2.649062        -0.239236
 H         1.966011        -1.577680        -1.424387
 H         4.456266         0.314844         0.361301
 H         3.253234         2.450249         1.791715
 H         0.761735         1.923601         2.153474
 H         0.493850        -0.188988        -1.241079
 H        -0.454801        -1.087667        -0.220402
 H        -0.667797         0.709862        -0.078852
 H         1.251841        -1.204537         2.544563
