19
Iteration:  2969
 C         2.652501        -1.497135        -0.703143
 C         2.542076        -0.664208         0.624009
 O         3.283574        -0.890959         1.929215
 C         3.448097         0.430672         0.813789
 C         2.654207         1.678022         1.170906
 C         1.379251         1.243723         1.518153
 C         1.120628        -0.171638         0.986349
 C         0.048405        -0.082741        -0.159593
 O         0.719902        -1.036275         2.008167
 H         2.618074        -0.780989        -1.492726
 H         3.614899        -2.094136        -0.829274
 H         1.850239        -2.244056        -1.040294
 H         4.414570         0.579467         0.264934
 H         3.146828         2.648665         1.465647
 H         0.548628         1.787382         1.953635
 H         0.439188         0.729520        -0.827820
 H         0.044865        -0.953952        -0.845703
 H        -0.847592         0.311874         0.406363
 H         1.532284        -1.264097         2.454949
