19
Iteration:  1937charge 0 multiplicity 1
 C         2.875128        -1.594673        -0.617091
 C         2.488875        -0.730967         0.554530
 O         3.274476        -0.881932         1.706434
 C         3.469479         0.293013         0.956981
 C         2.741854         1.468984         1.455874
 C         1.396837         1.277142         1.467135
 C         1.154287        -0.078628         0.866691
 C         0.069349         0.076538        -0.132361
 O         0.475984        -0.835136         1.920923
 H         2.455185        -2.617897        -0.437458
 H         2.309331        -1.198865        -1.479201
 H         3.909292        -1.757115        -0.755457
 H         4.438815         0.342605         0.498695
 H         3.238472         2.335230         1.873252
 H         0.581987         1.907037         1.808656
 H         0.439664         0.713063        -0.954180
 H        -0.370939        -0.858837        -0.566560
 H        -0.823033         0.440478         0.304848
 H         1.021134        -1.237515         2.548076
