19
Iteration:  2088
 C         2.742841        -1.647936        -0.527887
 C         2.535334        -0.603301         0.476308
 O         3.429314        -0.873451         1.638259
 C         3.539570         0.386992         0.903274
 C         2.753169         1.485803         1.573643
 C         1.405789         1.239903         1.530901
 C         1.081586        -0.110720         0.886625
 C         0.063263         0.001591        -0.279163
 O         0.402637        -0.887729         1.959218
 H         2.093229        -2.547225        -0.290757
 H         2.490728        -1.346953        -1.567552
 H         3.759318        -1.906452        -0.445601
 H         4.502336         0.449624         0.410148
 H         3.166454         2.376454         2.110359
 H         0.580353         1.788250         1.980723
 H         0.314379         0.308526        -1.288185
 H        -0.524338        -0.916251        -0.436902
 H        -0.586106         0.778609         0.013234
 H         0.994856        -0.703827         2.687215
