19
Iteration:  2665
 C         2.720959        -1.707628        -0.561761
 C         2.532432        -0.641433         0.527145
 O         3.410125        -0.803928         1.664867
 C         3.410291         0.482979         0.851393
 C         2.697883         1.494788         1.628443
 C         1.402700         1.180167         1.547965
 C         1.121683        -0.100986         0.825218
 C         0.054815        -0.062502        -0.246876
 O         0.527864        -0.815958         1.939517
 H         3.399039        -1.555818        -1.416368
 H         3.029889        -2.642105        -0.101369
 H         1.789312        -2.036541        -1.089344
 H         4.380945         0.630856         0.465076
 H         3.219509         2.181938         2.287433
 H         0.568098         1.730797         2.063903
 H         0.570041         0.176266        -1.236347
 H        -0.399291        -1.024968        -0.528780
 H        -0.607559         0.785118        -0.074913
 H         1.312348        -0.933227         2.600487
