19
Iteration:   335
 C         2.762701        -1.958829        -0.354973
 C         2.456500        -0.718605         0.507351
 O         3.342197        -0.752062         1.649970
 C         3.545765         0.395944         0.807667
 C         2.931467         1.623688         1.437166
 C         1.626651         1.257515         1.582624
 C         1.105905        -0.063231         0.934879
 C        -0.060313         0.207023        -0.082531
 O         0.273937        -0.951870         1.702279
 H         2.586980        -2.887689         0.273652
 H         2.336962        -2.102946        -1.364073
 H         3.894804        -1.924934        -0.509652
 H         4.451236         0.490894         0.259134
 H         3.424494         2.531310         1.722887
 H         0.932321         1.947417         1.997531
 H        -0.419968        -0.748914        -0.575621
 H        -0.996932         0.538937         0.456889
 H         0.115758         1.091008        -0.760124
 H         0.946577        -1.457872         2.365389
