19
Iteration:   372
 C         2.482195        -1.754957        -0.417813
 C         2.489694        -0.688965         0.631786
 O         3.437960        -0.771717         1.719582
 C         3.496136         0.341673         0.761070
 C         2.661184         1.470463         1.241135
 C         1.462843         1.196526         1.621875
 C         1.047445        -0.091554         1.052251
 C         0.363735         0.262844        -0.288776
 O         0.445628        -1.003828         1.887397
 H         1.801485        -2.567495        -0.189083
 H         2.221573        -1.331000        -1.392912
 H         3.503294        -2.156628        -0.398941
 H         4.471153         0.435543         0.184135
 H         3.107668         2.486754         1.331165
 H         0.651734         1.847262         2.021422
 H         0.458369        -0.473208        -1.077593
 H        -0.681310         0.492237        -0.024055
 H         0.868824         1.140917        -0.662642
 H         0.978699        -1.171370         2.779596
