19
Iteration:  2443
 C         2.963334        -1.630466        -0.627739
 C         2.525791        -0.696930         0.561807
 O         3.171146        -0.900267         1.757630
 C         3.480192         0.336138         0.929899
 C         2.759344         1.547943         1.447568
 C         1.457623         1.231141         1.477854
 C         1.087882        -0.153168         0.779682
 C        -0.125279         0.081938        -0.091532
 O         0.574399        -0.845593         1.911962
 H         2.298455        -2.131848        -1.315980
 H         3.703346        -1.066320        -1.250649
 H         3.597855        -2.489689        -0.279027
 H         4.556406         0.265757         0.614799
 H         3.118910         2.349477         2.059784
 H         0.595964         1.939847         1.685087
 H         0.009052         0.933864        -0.762600
 H        -0.219551        -0.850740        -0.738873
 H        -1.077421         0.187746         0.533701
 H         1.254037        -0.674700         2.508424
