19
Iteration:  4979charge 0 multiplicity 1
 C         2.610316        -1.835588        -0.377926
 C         2.545389        -0.681767         0.564213
 O         3.650536        -0.585695         1.544125
 C         3.397889         0.525813         0.656938
 C         2.681024         1.504282         1.408761
 C         1.434382         1.169438         1.664159
 C         1.070855        -0.178735         0.980281
 C         0.069162        -0.055825        -0.256443
 O         0.407017        -0.869729         1.975764
 H         3.464573        -1.881818        -1.036512
 H         2.713837        -2.716858         0.202391
 H         1.787575        -1.833882        -1.093802
 H         4.241012         0.798380        -0.007542
 H         3.320880         2.255882         1.958798
 H         0.782872         1.532325         2.422990
 H         0.632249         0.343305        -1.140714
 H        -0.251630        -1.074405        -0.554052
 H        -0.769722         0.718798         0.052237
 H         1.012700        -1.083360         2.691482
