19
Iteration:  3029charge 0 multiplicity 1
 C         2.816398        -1.631668        -0.561409
 C         2.507842        -0.630044         0.467848
 O         3.393752        -0.828652         1.552098
 C         3.477340         0.478942         0.855868
 C         2.737086         1.429161         1.585817
 C         1.349922         1.293430         1.560380
 C         1.074406        -0.024771         0.836860
 C        -0.058828        -0.295617        -0.130733
 O         0.592683        -0.754144         1.992078
 H         2.207295        -1.225484        -1.463112
 H         3.831099        -1.695518        -0.855331
 H         2.447008        -2.587314        -0.215571
 H         4.363091         0.738475         0.300924
 H         3.312126         2.153951         2.171369
 H         0.553905         1.834931         2.099072
 H         0.127180         0.012898        -1.164025
 H        -0.375494        -1.342950        -0.090128
 H        -0.934775         0.229710         0.149723
 H         1.397988        -1.085885         2.478950
