19
Iteration:    57
 C         2.512301        -1.876313        -0.363690
 C         2.520392        -0.680701         0.564903
 O         3.347472        -0.624973         1.747085
 C         3.482020         0.438736         0.768353
 C         2.714065         1.605596         1.368440
 C         1.526003         1.096032         1.670598
 C         1.200076        -0.109765         0.938136
 C         0.180462         0.237557        -0.246103
 O         0.492983        -1.081481         1.749785
 H         2.005852        -2.652531         0.207334
 H         1.984876        -1.615404        -1.240481
 H         3.522657        -2.301842        -0.658648
 H         4.356351         0.563749         0.145370
 H         3.159167         2.605958         1.389037
 H         0.709056         1.711860         2.061536
 H        -0.278282        -0.685697        -0.641830
 H        -0.624339         0.728946         0.327303
 H         0.560005         0.907365        -0.997546
 H         1.096830        -1.359529         2.545831
