19
Iteration:   276
 C         2.500654        -1.710449        -0.680131
 C         2.524468        -0.673926         0.485202
 O         3.213211        -0.874215         1.777581
 C         3.496911         0.327657         0.917814
 C         2.796696         1.522275         1.449077
 C         1.438924         1.309092         1.433760
 C         1.167486        -0.071344         0.984452
 C         0.239164        -0.003119        -0.255997
 O         0.571887        -0.825748         2.062211
 H         1.952774        -2.583004        -0.363689
 H         1.807731        -1.226749        -1.375150
 H         3.439775        -1.918078        -1.121350
 H         4.537325         0.394524         0.484288
 H         3.205897         2.421447         1.866286
 H         0.616282         1.919100         1.826799
 H        -0.121309        -0.982696        -0.524236
 H        -0.564284         0.699649        -0.099344
 H         0.802345         0.186193        -1.154741
 H         1.348968        -0.979967         2.522472
