19
Iteration:  3159charge 0 multiplicity 1
 C         2.671007        -1.839919        -0.413724
 C         2.543063        -0.562417         0.453809
 O         3.475865        -0.756399         1.508090
 C         3.460706         0.603998         0.744549
 C         2.660459         1.561065         1.517461
 C         1.372720         1.172987         1.544336
 C         1.081999        -0.121409         0.987718
 C         0.025853         0.047514        -0.161255
 O         0.596656        -1.057370         2.034197
 H         3.087692        -1.509950        -1.448194
 H         3.270233        -2.548600         0.094396
 H         1.693260        -2.203817        -0.695678
 H         4.327366         0.930772         0.181188
 H         2.961770         2.589768         1.786008
 H         0.562824         1.756351         1.916078
 H         0.418393         0.606767        -1.035358
 H        -0.112777        -0.922451        -0.649626
 H        -0.959315         0.402761         0.058155
 H         1.366396        -1.290752         2.540593
