19
Iteration:    51
 C         2.455431        -1.870097        -0.348582
 C         2.569815        -0.621787         0.585709
 O         3.402659        -0.650834         1.776030
 C         3.493831         0.443527         0.802037
 C         2.755784         1.602946         1.327964
 C         1.505356         1.182954         1.623144
 C         1.180053        -0.111651         0.901301
 C         0.156147         0.199357        -0.195687
 O         0.472906        -1.161507         1.711252
 H         1.820212        -2.679780         0.078310
 H         1.761542        -1.557793        -1.202653
 H         3.432211        -2.179170        -0.663924
 H         4.536100         0.587101         0.405539
 H         3.178858         2.594092         1.507879
 H         0.695078         1.815669         2.004467
 H        -0.199911        -0.771735        -0.568026
 H        -0.614938         0.812119         0.311189
 H         0.416019         0.913791        -1.021148
 H         1.134945        -1.310365         2.495064
