19
Iteration:  2672charge 0 multiplicity 1
 C         2.723211        -1.685026        -0.632618
 C         2.499566        -0.609601         0.460638
 O         3.402670        -0.777520         1.753057
 C         3.430116         0.390805         0.874587
 C         2.709927         1.480665         1.555184
 C         1.415070         1.189612         1.572467
 C         1.109481        -0.079098         0.877759
 C         0.086846        -0.058837        -0.266241
 O         0.512593        -0.823233         1.953037
 H         3.642814        -1.469005        -1.389180
 H         3.012276        -2.640035        -0.110418
 H         1.899872        -1.986608        -1.272894
 H         4.348597         0.716665         0.348685
 H         3.165527         2.240652         2.210960
 H         0.515048         1.600875         1.954018
 H         0.450186         0.154823        -1.274243
 H        -0.404997        -1.045968        -0.034244
 H        -0.693199         0.703926        -0.110037
 H         1.288322        -1.065754         2.578747
