19
Iteration:  4628charge 0 multiplicity 1
 C         2.775890        -1.769832        -0.512399
 C         2.442943        -0.679208         0.548015
 O         3.612171        -0.638989         1.571555
 C         3.287856         0.441113         0.617106
 C         2.702200         1.591388         1.325542
 C         1.419320         1.262680         1.615283
 C         1.042702        -0.165109         1.084282
 C         0.071856         0.055377        -0.073772
 O         0.478286        -1.044064         2.026450
 H         3.433603        -2.615825        -0.121953
 H         1.965231        -2.472410        -0.876456
 H         3.445232        -1.423891        -1.359956
 H         4.103259         0.563277        -0.131978
 H         3.163320         2.550024         1.588095
 H         0.636291         1.787796         2.124690
 H         0.504085         0.324987        -1.084212
 H        -0.306109        -0.960997        -0.309711
 H        -0.804053         0.752769         0.127836
 H         1.060630        -1.275387         2.727027
