19
Iteration:   656
 C         2.581805        -1.953029        -0.359690
 C         2.504661        -0.620861         0.486339
 O         3.459778        -0.733048         1.615844
 C         3.493998         0.415172         0.870170
 C         2.780750         1.559676         1.561515
 C         1.465837         1.212640         1.587023
 C         1.097487        -0.118066         0.873673
 C         0.212846         0.172992        -0.292975
 O         0.362437        -0.917687         1.825321
 H         2.009637        -2.747596         0.205467
 H         1.998384        -1.739771        -1.313675
 H         3.610242        -2.259422        -0.603219
 H         4.388082         0.505649         0.286049
 H         3.195263         2.373586         2.113954
 H         0.773339         1.774397         2.142979
 H        -0.015777        -0.746237        -0.911093
 H        -0.766159         0.525352         0.143588
 H         0.587437         1.006322        -0.953391
 H         0.976665        -1.165997         2.608600
