19
Iteration:  4028
 C         2.691206        -1.604455        -0.557155
 C         2.486973        -0.616059         0.531186
 O         3.438553        -0.673442         1.567082
 C         3.483732         0.480889         0.748633
 C         2.713372         1.641503         1.342270
 C         1.421109         1.220065         1.543853
 C         1.053698        -0.155655         0.994900
 C         0.107814        -0.144141        -0.105090
 O         0.518411        -1.088082         2.115515
 H         2.474665        -2.523391         0.122110
 H         1.994545        -1.657719        -1.386616
 H         3.664485        -1.636936        -0.999868
 H         4.319184         0.646243         0.072390
 H         3.006143         2.672765         1.603587
 H         0.606222         1.891997         1.771925
 H         0.334360         0.234182        -1.043429
 H        -0.076366        -1.151583        -0.468266
 H        -0.905397         0.181518         0.213936
 H         1.339036        -1.202799         2.711546
