19
Iteration:  3706charge 0 multiplicity 1
 C         2.634026        -1.782071        -0.581795
 C         2.532686        -0.612415         0.403808
 O         3.431427        -0.689580         1.604030
 C         3.406012         0.541559         0.835504
 C         2.631004         1.609050         1.461640
 C         1.375320         1.248008         1.515588
 C         1.141425        -0.178419         0.936204
 C        -0.034377        -0.136377        -0.008058
 O         0.773156        -0.970921         1.945793
 H         2.679129        -2.585000         0.105072
 H         1.677352        -1.897749        -1.146472
 H         3.315079        -1.839380        -1.405081
 H         4.353907         0.915248         0.464612
 H         3.151161         2.424917         2.009199
 H         0.569922         1.853557         1.965855
 H         0.072964         0.389823        -0.908865
 H        -0.470003        -1.099344        -0.253907
 H        -0.796071         0.447501         0.527155
 H         1.511784        -1.176257         2.581173
