19
Iteration:  3576
 C         2.602809        -1.761200        -0.652279
 C         2.433734        -0.544564         0.455858
 O         3.370966        -0.730479         1.626976
 C         3.485008         0.532171         0.800044
 C         2.690464         1.621776         1.472198
 C         1.396589         1.238563         1.535778
 C         1.163778        -0.122880         0.959965
 C         0.052423        -0.106737        -0.154564
 O         0.679705        -1.029537         2.071982
 H         2.733916        -1.500704        -1.616060
 H         3.454876        -2.186267        -0.063011
 H         1.732439        -2.399777        -0.528171
 H         4.384580         0.692768         0.261380
 H         3.148308         2.490922         1.887865
 H         0.578054         1.770970         2.046048
 H         0.270221         0.618618        -0.908262
 H        -0.035373        -1.095114        -0.618759
 H        -0.906188         0.164593         0.372805
 H         1.494636        -1.542502         2.476112
