19
Iteration:  4629charge 0 multiplicity 1
 C         2.778810        -1.770660        -0.514304
 C         2.440733        -0.677441         0.555837
 O         3.610812        -0.643898         1.570327
 C         3.287772         0.444508         0.607959
 C         2.706469         1.593259         1.319508
 C         1.413949         1.268136         1.624921
 C         1.029537        -0.164030         1.088562
 C         0.076509         0.061760        -0.074667
 O         0.479867        -1.046808         2.022720
 H         3.435201        -2.625279        -0.127344
 H         1.991992        -2.497466        -0.863628
 H         3.447841        -1.443429        -1.373892
 H         4.122872         0.559815        -0.142587
 H         3.159515         2.555772         1.602365
 H         0.605837         1.786903         2.118283
 H         0.560383         0.278311        -1.062906
 H        -0.308424        -0.964048        -0.299805
 H        -0.781096         0.744001         0.160630
 H         1.070930        -1.270641         2.706177
