19
Iteration:  1806charge 0 multiplicity 1
 C         2.725530        -1.613323        -0.584300
 C         2.486621        -0.680858         0.588116
 O         3.313011        -0.912772         1.761146
 C         3.557538         0.293476         0.959556
 C         2.817886         1.598759         1.436851
 C         1.475969         1.343503         1.466960
 C         1.064139        -0.079655         0.963645
 C         0.041563         0.031637        -0.214683
 O         0.418386        -0.939898         1.867098
 H         2.374980        -2.642769        -0.315213
 H         2.280552        -1.245372        -1.578023
 H         3.810466        -1.763320        -0.653315
 H         4.477211         0.203205         0.406160
 H         3.311157         2.559839         1.631268
 H         0.792526         2.103424         1.915868
 H         0.337574         0.869038        -0.912313
 H         0.136509        -0.890223        -0.865364
 H        -0.969545         0.164567         0.161723
 H         1.267602        -1.308004         2.268564
