19
Iteration:  2097
 C         2.647111        -1.622685        -0.576208
 C         2.572312        -0.650575         0.585411
 O         3.399317        -0.951302         1.643995
 C         3.493594         0.436192         0.898433
 C         2.736241         1.500506         1.646863
 C         1.435742         1.299195         1.438388
 C         1.059253        -0.067585         0.856617
 C         0.069547        -0.047784        -0.266588
 O         0.467288        -0.867669         1.932592
 H         2.268075        -2.562452        -0.227842
 H         2.493800        -1.327023        -1.582870
 H         3.723335        -1.883183        -0.590626
 H         4.422781         0.753544         0.509919
 H         3.358776         2.311740         2.063898
 H         0.603107         1.874758         1.816360
 H         0.564886         0.355102        -1.130342
 H        -0.253139        -1.080954        -0.303172
 H        -0.781669         0.525110         0.095030
 H         1.125193        -0.899760         2.624936
