19
Iteration:  2619
 C         2.560324        -1.734118        -0.465275
 C         2.520437        -0.637958         0.515829
 O         3.438795        -0.747813         1.763223
 C         3.445370         0.401894         0.842064
 C         2.725578         1.580074         1.462476
 C         1.422677         1.284748         1.619814
 C         1.105539        -0.137935         0.983111
 C         0.200988         0.044376        -0.249134
 O         0.498902        -1.027406         1.780586
 H         2.540463        -1.376281        -1.568154
 H         3.383401        -2.464686        -0.381193
 H         1.690866        -2.363652        -0.473094
 H         4.315331         0.664929         0.263787
 H         3.175269         2.568956         1.644972
 H         0.605811         1.878524         1.984329
 H         0.369033         0.987305        -0.836464
 H         0.318680        -0.804210        -0.946684
 H        -0.824621         0.121583         0.131444
 H         1.214304        -1.289781         2.475586
