19
Iteration:  1559
 C         2.699166        -1.409783        -0.736923
 C         2.482968        -0.706393         0.550685
 O         3.302025        -1.007529         1.787870
 C         3.514099         0.242301         0.963895
 C         2.787018         1.465703         1.528686
 C         1.427273         1.289459         1.336755
 C         1.109437        -0.178901         0.946838
 C         0.241315        -0.094889        -0.335300
 O         0.384157        -0.681336         2.137640
 H         2.036833        -2.298391        -0.672374
 H         2.151963        -0.723434        -1.472869
 H         3.693435        -1.589772        -0.984453
 H         4.542824         0.286681         0.520316
 H         3.338126         2.333595         1.933791
 H         0.553138         1.882167         1.605886
 H         0.625485         0.622859        -1.083729
 H        -0.018476        -1.093981        -0.759033
 H        -0.716026         0.272152        -0.060290
 H         1.232796        -0.833139         2.621272
