19
Iteration:  2676
 C         2.743307        -1.678200        -0.668373
 C         2.478349        -0.617418         0.411898
 O         3.390718        -0.765757         1.784207
 C         3.475968         0.357202         0.898397
 C         2.714016         1.486782         1.525381
 C         1.411246         1.208011         1.568992
 C         1.100996        -0.072766         0.911188
 C         0.095596        -0.062050        -0.263750
 O         0.502003        -0.842863         1.963134
 H         3.667232        -1.366907        -1.229456
 H         3.009485        -2.574171        -0.114011
 H         1.861772        -1.846035        -1.335609
 H         4.305630         0.630826         0.285654
 H         3.167995         2.291939         2.093361
 H         0.484554         1.668254         2.017703
 H         0.455704         0.067249        -1.328827
 H        -0.405680        -0.965983         0.084718
 H        -0.738473         0.624032        -0.068920
 H         1.234698        -1.111816         2.533714
