19
Iteration:  3881
 C         2.818424        -1.632275        -0.635106
 C         2.452111        -0.718466         0.565325
 O         3.490020        -0.759829         1.653219
 C         3.371565         0.386228         0.836427
 C         2.661306         1.616835         1.258551
 C         1.329696         1.315514         1.448581
 C         1.075443        -0.063261         1.009188
 C         0.024924        -0.083989        -0.005757
 O         0.604189        -1.038152         2.073730
 H         3.148030        -2.600876        -0.534367
 H         1.907045        -1.854286        -1.283863
 H         3.621981        -1.094768        -1.202988
 H         4.377556         0.472335         0.291492
 H         3.196101         2.504782         1.489678
 H         0.390345         1.831506         1.676091
 H         0.288305         0.653176        -0.814895
 H        -0.085910        -1.041956        -0.471320
 H        -0.924427         0.224639         0.319974
 H         1.333707        -1.042975         2.678351
