19
Iteration:  1951charge 0 multiplicity 1
 C         0.098824         0.556724         0.166406
 C         1.541112         0.026452         0.059909
 C         2.083074        -0.762032         1.288617
 O         3.284264        -1.446600         1.048419
 C         4.493417        -0.688833         1.137025
 C         4.595099         0.635807         0.409014
 C         3.779538         1.261470        -0.472810
 C         2.382701         0.821447        -0.852178
 O         2.058954        -0.562346        -1.166270
 H        -0.079531         1.039071         1.063727
 H        -0.237091         1.156756        -0.693610
 H        -0.648973        -0.371390         0.176518
 H         2.095413         0.027083         2.034795
 H         1.218207        -1.451349         1.587058
 H         4.452509        -0.410477         2.189471
 H         5.282972        -1.371567         0.889265
 H         5.691042         0.999919         0.429415
 H         4.124445         2.155012        -1.058412
 H         1.873029         1.616070        -1.516426
