19
Iteration:   422
 C         0.179298         0.462412         0.237013
 C         1.600978         0.010964         0.096022
 C         2.016697        -0.902912         1.277661
 O         3.320063        -1.442428         1.059378
 C         4.337089        -0.441206         1.359140
 C         4.696981         0.500073         0.198724
 C         3.847316         1.115700        -0.681938
 C         2.370516         0.906783        -0.750409
 O         1.968055        -0.414140        -1.248630
 H        -0.017609         0.839105         1.304060
 H        -0.179064         1.242519        -0.313484
 H        -0.464248        -0.463394         0.083305
 H         1.952454        -0.301230         2.210273
 H         1.300909        -1.736643         1.337203
 H         4.075102         0.218450         2.290755
 H         5.175385        -1.034480         1.685336
 H         5.722446         0.807992         0.142329
 H         4.358930         1.980788        -1.365938
 H         1.827327         1.791196        -1.141389
