19
Iteration:  3031charge 0 multiplicity 1
 C        -0.054745         0.256466         0.307637
 C         1.514512         0.046242         0.106633
 C         2.033770        -0.980867         1.074808
 O         3.338486        -1.429951         0.741778
 C         4.373419        -0.615513         1.333764
 C         4.784698         0.464423         0.417210
 C         3.962362         1.112879        -0.473980
 C         2.470442         1.038835        -0.558113
 O         1.948159        -0.056776        -1.329418
 H        -0.733899         0.526484        -0.622545
 H        -0.567455        -0.725970         0.684152
 H        -0.198743         1.095227         1.121103
 H         1.986832        -0.536116         2.096838
 H         1.424713        -1.916261         1.061970
 H         3.980963        -0.283691         2.373290
 H         5.173078        -1.318786         1.450736
 H         5.777768         0.817093         0.536317
 H         4.549286         1.777558        -1.192945
 H         1.958435         1.962717        -0.574086
