19
Iteration:  2440charge 0 multiplicity 1
 C         0.104002         0.257930         0.143753
 C         1.611360         0.089562         0.004989
 C         2.042871        -0.687063         1.360218
 O         3.249077        -1.475758         1.171981
 C         4.449763        -0.715554         1.116942
 C         4.620510         0.453415         0.291311
 C         3.774103         1.200059        -0.461587
 C         2.357918         1.011291        -0.719258
 O         2.083870        -0.271991        -1.311836
 H        -0.474628         1.076795        -0.540099
 H        -0.478291        -0.708615         0.054865
 H        -0.060034         0.579873         1.154719
 H         2.142937        -0.063203         2.268178
 H         1.375971        -1.529222         1.540632
 H         4.863763        -0.610442         2.095414
 H         5.120783        -1.374984         0.662628
 H         5.583754         0.812719         0.400715
 H         4.196203         2.077338        -0.983063
 H         1.822324         1.859281        -1.207495
