19
Iteration:  4657charge 0 multiplicity 1
 C         0.031247         0.318060         0.297380
 C         1.514868         0.040426        -0.036482
 C         2.037615        -0.918729         1.026889
 O         3.321192        -1.515564         0.935948
 C         4.539075        -0.758145         1.279706
 C         4.670769         0.585792         0.543108
 C         3.840867         1.143785        -0.292645
 C         2.431789         1.037722        -0.627238
 O         1.923381        -0.099734        -1.447226
 H        -0.740079         0.098250        -0.471674
 H        -0.218598        -0.057273         1.336847
 H        -0.154482         1.428685         0.375792
 H         1.969341        -0.453021         2.034380
 H         1.387000        -1.738116         0.928059
 H         4.460254        -0.477874         2.379625
 H         5.413427        -1.430313         0.950001
 H         5.665270         0.854248         0.359336
 H         4.416974         1.715991        -1.067398
 H         2.036897         1.991791        -0.896818
