19
Iteration:  2388
 C        -0.082740         0.254954         0.120147
 C         1.455323         0.032000         0.046897
 C         2.084082        -0.668992         1.354598
 O         3.280785        -1.320951         0.947357
 C         4.548851        -0.697458         1.207636
 C         4.761537         0.434621         0.321648
 C         3.868530         1.145736        -0.414051
 C         2.424099         0.933232        -0.730979
 O         1.983374        -0.310877        -1.243926
 H        -0.283873         1.334416         0.120679
 H        -0.509521        -0.058842        -0.798017
 H        -0.559626        -0.190684         1.012851
 H         2.211881         0.162369         2.132912
 H         1.468973        -1.445995         1.870165
 H         4.550177        -0.394544         2.333343
 H         5.297335        -1.568213         1.193212
 H         5.807581         0.829903         0.259126
 H         4.206822         2.027488        -0.989852
 H         1.813418         1.675430        -1.220450
