19
Iteration:  3860charge 0 multiplicity 1
 C         0.141130         0.422847         0.333288
 C         1.559612        -0.005194        -0.000539
 C         2.103423        -0.890060         1.143815
 O         3.308622        -1.612634         0.920868
 C         4.436971        -0.758622         1.175203
 C         4.601892         0.643897         0.543007
 C         3.789598         1.278816        -0.367982
 C         2.438916         0.956170        -0.795502
 O         1.912716        -0.227713        -1.375842
 H        -0.233244         1.191145        -0.387809
 H        -0.391995        -0.362620         0.360696
 H         0.146217         0.864254         1.314178
 H         2.204293        -0.179421         1.974357
 H         1.349219        -1.597062         1.397056
 H         4.591633        -0.689023         2.283344
 H         5.380769        -1.337419         0.974032
 H         5.468544         1.163181         0.851742
 H         4.059289         2.342049        -0.546990
 H         1.966828         1.738929        -1.286409
