19
Iteration:  1920
 C         0.133516         0.459414         0.199814
 C         1.523602        -0.015851        -0.032091
 C         2.142055        -0.687638         1.223921
 O         3.318433        -1.378392         1.087222
 C         4.588023        -0.695929         1.249185
 C         4.655076         0.647647         0.518719
 C         3.801459         1.098361        -0.441101
 C         2.388191         0.788806        -0.903767
 O         1.793746        -0.446897        -1.341281
 H         0.007739         1.272067         0.939191
 H        -0.362751         0.835913        -0.688064
 H        -0.384955        -0.416717         0.703632
 H         2.261995         0.196317         1.925674
 H         1.312067        -1.431754         1.594671
 H         4.587277        -0.521562         2.308892
 H         5.366480        -1.407335         1.125690
 H         5.611252         1.113390         0.763432
 H         4.080613         2.141932        -0.890983
 H         1.883458         1.744797        -1.456010
