19
Iteration:  3346charge 0 multiplicity 1
 C         0.199131         0.402915         0.336688
 C         1.619716        -0.001297         0.010755
 C         2.021925        -0.989712         1.094814
 O         3.280726        -1.588985         0.891251
 C         4.378106        -0.749488         1.126953
 C         4.589154         0.631174         0.459214
 C         3.740508         1.325294        -0.308127
 C         2.389734         1.039839        -0.708133
 O         2.060655        -0.228726        -1.304469
 H        -0.441285         0.768313        -0.445035
 H        -0.335256        -0.248022         0.968699
 H         0.369224         1.257392         0.906420
 H         2.004984        -0.478027         2.134031
 H         1.216377        -1.818173         1.222887
 H         4.543257        -0.593132         2.124668
 H         5.266500        -1.418390         0.764336
 H         5.592150         0.994446         0.636693
 H         4.161813         2.192792        -0.840743
 H         1.846319         1.987978        -0.972670
