19
Iteration:   131
 C         0.022021         0.215558         0.139195
 C         1.503138         0.090261         0.076452
 C         2.069202        -0.494044         1.330023
 O         3.171774        -1.221943         0.945663
 C         4.469651        -0.735331         1.091203
 C         4.752932         0.490145         0.371614
 C         3.856072         1.136074        -0.423368
 C         2.471875         0.860066        -0.743688
 O         1.992593        -0.473963        -1.132059
 H        -0.232474         0.357852         1.222392
 H        -0.348846         1.056784        -0.493857
 H        -0.375864        -0.778047        -0.228068
 H         2.201646         0.290206         2.116813
 H         1.342725        -1.166775         1.773588
 H         4.862907        -0.788377         2.153358
 H         5.095097        -1.437091         0.506188
 H         5.744297         0.824915         0.323775
 H         4.230475         1.904624        -0.999787
 H         2.051862         1.591509        -1.441070
