19
Iteration:  4462charge 0 multiplicity 1
 C         0.152166         0.564318         0.234678
 C         1.601653         0.044371         0.174456
 C         1.979383        -1.225746         0.930137
 O         3.368863        -1.549372         0.719084
 C         4.258433        -0.693276         1.272805
 C         4.713007         0.611625         0.423566
 C         3.822735         1.309848        -0.286963
 C         2.442470         0.999684        -0.513097
 O         1.974430        -0.206929        -1.241714
 H        -0.376041         0.048334         0.974880
 H         0.159264         1.629428         0.414504
 H        -0.280807         0.397661        -0.729889
 H         1.815005        -1.245367         2.044897
 H         1.495565        -2.246036         0.633466
 H         3.904446        -0.195016         2.245222
 H         5.133745        -1.204710         1.356233
 H         5.799147         0.891780         0.355227
 H         4.254557         2.184916        -0.885480
 H         1.912650         1.980191        -0.835305
