19
Iteration:  4199
 C        -0.006371         0.325700         0.076526
 C         1.533868         0.086555         0.168509
 C         2.031922        -1.082264         1.061809
 O         3.306890        -1.610314         0.834282
 C         4.275035        -0.523047         1.219251
 C         4.807631         0.453533         0.145450
 C         3.914118         1.265719        -0.415409
 C         2.451544         1.074942        -0.346008
 O         2.056817        -0.137700        -1.072571
 H        -0.384942        -0.218225        -0.809647
 H        -0.610895         0.043029         0.876938
 H        -0.079731         1.459841        -0.026456
 H         1.925695        -0.740651         2.092890
 H         1.236970        -1.838446         1.006987
 H         3.801015         0.030642         1.946491
 H         4.992529        -1.173778         1.647071
 H         5.991928         0.631104         0.177383
 H         4.169510         2.073709        -1.044707
 H         1.999780         1.957830        -0.928499
