19
Iteration:  4102
 C         0.244958         0.566313         0.430576
 C         1.558786         0.032743        -0.003531
 C         2.080759        -1.108092         0.944092
 O         3.416794        -1.525750         0.803228
 C         4.297031        -0.556889         1.403381
 C         4.600438         0.607266         0.560541
 C         3.830721         1.106273        -0.427192
 C         2.411988         0.896456        -0.700192
 O         1.864571        -0.235361        -1.429425
 H         0.061130         1.568936        -0.050822
 H        -0.579073        -0.137684         0.379158
 H         0.463586         0.885133         1.525469
 H         1.787896        -0.839728         2.025038
 H         1.433013        -1.880285         0.739095
 H         3.828353        -0.335851         2.489736
 H         5.245562        -1.144632         1.640405
 H         5.608988         1.186566         0.665768
 H         4.242249         2.026545        -0.836499
 H         2.055408         1.783976        -1.027106
