19
Iteration:  4268charge 0 multiplicity 1
 C         0.024919         0.374479         0.330684
 C         1.474235        -0.004830        -0.070875
 C         2.127397        -0.918473         1.110672
 O         3.412392        -1.570047         0.817091
 C         4.461353        -0.771262         1.344279
 C         4.693968         0.516611         0.577722
 C         3.838210         1.221615        -0.242082
 C         2.427640         0.987539        -0.768729
 O         1.829774        -0.042534        -1.487488
 H        -0.435868        -0.458008         0.853566
 H        -0.114780         1.234073         1.104570
 H        -0.488177         0.665391        -0.590815
 H         2.072121        -0.325644         2.066688
 H         1.476647        -1.671196         1.342909
 H         4.458469        -0.711924         2.406247
 H         5.361456        -1.403089         0.984780
 H         5.659148         1.017684         0.909317
 H         4.390034         2.140767        -0.576288
 H         2.115714         1.916345        -1.130862
