19
Iteration:  4007
 C         0.008691         0.178015         0.284265
 C         1.550829         0.020297        -0.007315
 C         2.073658        -0.907966         1.035403
 O         3.348717        -1.545874         1.073749
 C         4.466148        -0.634094         1.337873
 C         4.717839         0.369869         0.319289
 C         3.850527         1.072590        -0.414073
 C         2.376910         1.054796        -0.504828
 O         1.936385         0.158271        -1.514360
 H        -0.270102         0.888045        -0.399391
 H        -0.476087        -0.760636         0.118302
 H        -0.220444         0.658114         1.222531
 H         1.867170        -0.492475         2.001908
 H         1.295185        -1.807908         1.058944
 H         4.273442        -0.013489         2.347777
 H         5.370573        -1.278150         1.515481
 H         5.783645         0.571479        -0.002073
 H         4.213118         1.890332        -0.976660
 H         2.013904         2.182789        -0.410912
