19
Iteration:  2040charge 0 multiplicity 1
 C         0.003817         0.201186         0.150161
 C         1.555075        -0.004932         0.004684
 C         2.089891        -0.619365         1.279173
 O         3.313135        -1.451320         1.191404
 C         4.510473        -0.605663         1.315998
 C         4.693905         0.423427         0.291491
 C         3.820820         1.015745        -0.549566
 C         2.332927         1.018231        -0.669043
 O         1.970012        -0.162235        -1.423798
 H        -0.178594         0.566644         1.105763
 H        -0.409567         0.942807        -0.517582
 H        -0.541242        -0.845002         0.362111
 H         2.170013         0.158076         2.006197
 H         1.363108        -1.403985         1.661288
 H         4.765941        -0.277006         2.463893
 H         5.262935        -1.292535         1.049495
 H         5.693808         0.693657         0.167068
 H         4.384618         1.636599        -1.284270
 H         1.819576         1.967137        -1.129685
