19
Iteration:  1222
 C         0.045714         0.460406         0.198478
 C         1.562779         0.003936         0.053309
 C         2.085588        -0.890320         1.205032
 O         3.417240        -1.389923         1.079081
 C         4.430368        -0.505683         1.425874
 C         4.744709         0.502632         0.358278
 C         3.856250         1.080323        -0.556580
 C         2.428763         0.869627        -0.779543
 O         1.789653        -0.341462        -1.340086
 H        -0.089555         1.168208         0.991361
 H        -0.115187         0.927870        -0.730484
 H        -0.688157        -0.350819         0.231773
 H         1.840209        -0.307848         2.146768
 H         1.366228        -1.817917         1.159521
 H         4.195795         0.009446         2.355184
 H         5.201866        -1.171917         1.687664
 H         5.745518         0.722790         0.011792
 H         4.343724         1.844104        -1.354607
 H         1.985760         1.893054        -1.137025
