19
Iteration:  4643
 C         0.033592         0.263743         0.219097
 C         1.533067         0.067807         0.039829
 C         2.006325        -0.936678         1.044722
 O         3.339722        -1.489828         0.915412
 C         4.440056        -0.695260         1.336843
 C         4.718745         0.424866         0.385508
 C         3.888288         1.185115        -0.389246
 C         2.394228         1.099818        -0.550592
 O         1.950624        -0.046018        -1.342966
 H        -0.372858        -0.247909        -0.673663
 H        -0.359042        -0.365628         0.965752
 H        -0.206742         1.342739         0.388239
 H         1.849047        -0.357586         1.965427
 H         1.348371        -1.786859         1.127917
 H         4.567113        -0.578384         2.437038
 H         5.297510        -1.406314         1.221986
 H         5.853477         0.631582         0.322719
 H         4.285971         1.940327        -1.087122
 H         1.865392         1.969913        -0.823197
