19
Iteration:  1700charge 0 multiplicity 1
 C         0.146906         0.608671         0.287126
 C         1.550606        -0.043017         0.078874
 C         2.048673        -1.067972         1.138131
 O         3.351916        -1.491363         1.024682
 C         4.323412        -0.349926         1.338770
 C         4.677805         0.568839         0.264237
 C         3.876659         1.088538        -0.622994
 C         2.421842         0.916877        -0.669344
 O         1.964818        -0.430534        -1.217248
 H         0.207183         1.520080         0.781118
 H        -0.320939         0.863589        -0.714410
 H        -0.780161         0.020934         0.674379
 H         1.688257        -0.662612         2.097957
 H         1.374587        -1.945519         0.799910
 H         3.953346         0.093924         2.257567
 H         5.214272        -0.754918         1.696750
 H         5.761818         0.912687         0.287564
 H         4.253796         1.709308        -1.323430
 H         1.980633         1.787378        -1.208807
