19
Iteration:   617
 C        -0.002984         0.264241         0.151151
 C         1.488620         0.121867         0.051596
 C         2.107366        -0.616445         1.252243
 O         3.342109        -1.389900         1.095587
 C         4.485740        -0.639165         1.277376
 C         4.714819         0.472267         0.385509
 C         3.867445         1.048303        -0.530245
 C         2.406984         0.885473        -0.751467
 O         1.904507        -0.321360        -1.303340
 H        -0.474531         0.310941         1.219391
 H        -0.436527         1.051389        -0.462304
 H        -0.547904        -0.644344        -0.312645
 H         2.409269         0.136886         2.008799
 H         1.363366        -1.365335         1.525363
 H         4.306195        -0.295426         2.363042
 H         5.417165        -1.351498         1.172949
 H         5.721393         0.868655         0.299337
 H         4.342374         1.850235        -1.256778
 H         2.081811         1.849880        -1.222055
