19
Iteration:   605
 C         0.007278         0.276525         0.129651
 C         1.527145         0.039225        -0.046704
 C         2.152732        -0.654814         1.207045
 O         3.330735        -1.404997         1.191614
 C         4.568866        -0.645822         1.325091
 C         4.671888         0.471342         0.390008
 C         3.802106         1.013190        -0.484129
 C         2.409520         1.016081        -0.780634
 O         1.814427        -0.299415        -1.348662
 H        -0.192748         0.454085         1.288881
 H        -0.306927         1.156392        -0.383487
 H        -0.423409        -0.728617        -0.236939
 H         2.078900         0.166706         1.968534
 H         1.408633        -1.326313         1.714104
 H         4.935219        -0.220408         2.343852
 H         5.410476        -1.410093         1.132993
 H         5.699508         0.802531         0.319177
 H         4.452179         1.743903        -1.208159
 H         1.878667         1.912536        -1.266738
