19
Iteration:   917charge 0 multiplicity 1
 C         0.040589         0.582477         0.109190
 C         1.466605        -0.008908         0.132933
 C         1.926574        -0.994675         1.181208
 O         3.335614        -1.425594         1.083152
 C         4.458426        -0.550851         1.257573
 C         4.768248         0.599207         0.214286
 C         3.798136         1.235405        -0.635844
 C         2.406764         0.838105        -0.712500
 O         2.049988        -0.469946        -1.058031
 H        -0.033079         1.326149         1.028204
 H         0.019212         1.073472        -0.864199
 H        -0.887186        -0.097989         0.246777
 H         1.745853        -0.513956         2.152990
 H         1.297632        -1.857213         1.147455
 H         4.426717         0.028221         2.294012
 H         5.488638        -1.145146         1.390532
 H         5.882957         0.866384         0.215730
 H         4.410434         2.044225        -1.135517
 H         2.040044         1.655538        -1.389867
