19
Iteration:  2987charge 0 multiplicity 1
 C        -0.007073         0.308509         0.139346
 C         1.489207         0.041561         0.102033
 C         2.014561        -0.978476         1.149785
 O         3.341703        -1.495725         0.932697
 C         4.471977        -0.689183         1.204925
 C         4.744701         0.397609         0.240133
 C         3.874132         1.269193        -0.388905
 C         2.393086         1.091522        -0.463701
 O         1.987853        -0.097731        -1.237610
 H        -0.255410         0.792120        -0.910693
 H        -0.499304        -0.712466        -0.073390
 H        -0.563746         0.915215         0.933503
 H         2.017948        -0.532557         2.210642
 H         1.341144        -1.887070         1.205476
 H         4.369171        -0.243139         2.188821
 H         5.322771        -1.336064         1.221494
 H         5.826093         0.593961         0.222457
 H         4.351726         2.138137        -0.948783
 H         1.997147         1.954944        -0.929223
