19
Iteration:  3699charge 0 multiplicity 1
 C         0.177641         0.619331         0.372870
 C         1.503498        -0.063134         0.065078
 C         2.065251        -1.095069         1.017502
 O         3.385276        -1.469441         0.748504
 C         4.413169        -0.640134         1.241620
 C         4.578710         0.690990         0.608411
 C         3.854962         1.166989        -0.411698
 C         2.446351         0.892012        -0.709057
 O         1.901990        -0.294391        -1.288699
 H         0.162575         1.581719         0.054954
 H        -0.709004         0.048444        -0.088640
 H        -0.124066         0.803435         1.380629
 H         1.829655        -0.939884         2.067508
 H         1.448134        -2.013458         0.721544
 H         4.411480        -0.619571         2.407156
 H         5.306803        -1.164763         1.071753
 H         5.389858         1.278739         0.834116
 H         4.171575         2.026100        -1.021071
 H         1.988869         1.834675        -0.969370
