19
Iteration:   889
 C         0.088302         0.430839         0.153836
 C         1.506492         0.010687         0.077579
 C         2.036589        -0.886103         1.227762
 O         3.375350        -1.318072         1.070404
 C         4.446441        -0.468339         1.353447
 C         4.786498         0.462143         0.245908
 C         3.878325         1.010520        -0.512622
 C         2.404026         0.903095        -0.658403
 O         1.834706        -0.362392        -1.325660
 H        -0.154194         0.962084         1.021974
 H        -0.160738         1.054144        -0.733766
 H        -0.559135        -0.406903         0.074716
 H         1.786735        -0.319665         2.181472
 H         1.421508        -1.852335         1.412159
 H         4.347779         0.119319         2.264181
 H         5.249927        -1.091323         1.576727
 H         5.824744         0.754530         0.124155
 H         4.174995         1.796046        -1.326053
 H         1.893738         1.784861        -1.118263
