19
Iteration:  3968charge 0 multiplicity 1
 C         0.034536         0.225454         0.173357
 C         1.575950         0.074170         0.118854
 C         2.004609        -0.987272         1.045955
 O         3.320090        -1.585596         1.121596
 C         4.436537        -0.719312         1.218082
 C         4.676286         0.435405         0.262202
 C         3.875198         1.261254        -0.427588
 C         2.408278         1.152909        -0.536654
 O         2.005982         0.004964        -1.324762
 H        -0.323027         0.717729        -0.823473
 H        -0.631489        -0.728761         0.257018
 H        -0.319841         0.836433         1.033606
 H         1.761145        -0.616791         2.100150
 H         1.435022        -1.873001         0.908875
 H         4.448113        -0.308666         2.149544
 H         5.286732        -1.359154         1.080707
 H         5.706993         0.600604         0.101877
 H         4.317931         2.173648        -0.906251
 H         1.914193         2.015143        -0.854779
