19
Iteration:  1919
 C         0.131349         0.466079         0.211479
 C         1.519458        -0.020819        -0.035876
 C         2.136314        -0.679725         1.218707
 O         3.316784        -1.380187         1.082452
 C         4.594179        -0.690715         1.254345
 C         4.651975         0.644013         0.525994
 C         3.803126         1.095398        -0.441601
 C         2.383982         0.793157        -0.907061
 O         1.795219        -0.445416        -1.344150
 H        -0.011606         1.255844         0.894845
 H        -0.371873         0.818641        -0.700873
 H        -0.387065        -0.461864         0.714496
 H         2.275037         0.183528         1.932869
 H         1.319059        -1.448014         1.610880
 H         4.635182        -0.520740         2.308609
 H         5.390866        -1.376410         1.140568
 H         5.661467         1.093002         0.766132
 H         4.127766         2.103087        -0.901457
 H         1.864632         1.735110        -1.453439
