19
Iteration:   552charge 0 multiplicity 1
 C         0.116358         0.389879         0.196975
 C         1.555592         0.003689         0.044957
 C         2.000556        -0.846303         1.228754
 O         3.252592        -1.428755         1.176508
 C         4.436530        -0.619915         1.249144
 C         4.672048         0.540631         0.248282
 C         3.872486         1.244306        -0.587597
 C         2.383693         0.984961        -0.769039
 O         2.032077        -0.406280        -1.211892
 H         0.171685         1.133995         1.068911
 H        -0.212221         0.767491        -0.733722
 H        -0.538493        -0.491431         0.536514
 H         1.650563        -0.278983         2.136314
 H         1.366513        -1.720635         1.228573
 H         4.533252        -0.086223         2.187487
 H         5.236158        -1.520900         1.162774
 H         5.711173         0.768950         0.147000
 H         4.308954         2.096014        -1.321730
 H         1.717159         1.792848        -1.135704
