19
Iteration:  1267charge 0 multiplicity 1
 C         0.040418         0.168247         0.372642
 C         1.507193         0.095494         0.002886
 C         2.049684        -0.814895         1.176489
 O         3.293320        -1.291359         1.031754
 C         4.329389        -0.397566         1.453430
 C         4.809634         0.434909         0.339469
 C         4.038390         0.920683        -0.655613
 C         2.460640         0.962877        -0.717702
 O         1.859684        -0.216376        -1.385788
 H        -0.012045         0.604907         1.373471
 H        -0.466850         0.801247        -0.351879
 H        -0.384248        -0.809689         0.318467
 H         1.710302        -0.316488         2.090235
 H         1.302667        -1.714861         1.170565
 H         4.022877         0.141641         2.338638
 H         5.085881        -1.107317         1.754164
 H         5.855953         0.411271         0.229624
 H         4.569436         1.331806        -1.573397
 H         1.990336         1.825745        -1.306686
