19
Iteration:  1946
 C         0.111699         0.539295         0.184532
 C         1.531036         0.007675         0.042137
 C         2.068344        -0.738692         1.294909
 O         3.290977        -1.463933         1.055577
 C         4.510112        -0.631369         1.142872
 C         4.592357         0.596716         0.397563
 C         3.792134         1.260921        -0.460273
 C         2.398082         0.811364        -0.871319
 O         2.012478        -0.558230        -1.212191
 H        -0.235244         1.182326         1.111818
 H        -0.137372         1.128908        -0.710495
 H        -0.537777        -0.273345         0.253270
 H         2.187956         0.043927         2.102563
 H         1.273687        -1.400837         1.526030
 H         4.544343        -0.419983         2.273144
 H         5.364598        -1.338626         0.871643
 H         5.569310         0.998163         0.664314
 H         4.118501         2.197118        -0.869603
 H         1.897719         1.542346        -1.439328
