19
Iteration:  2143charge 0 multiplicity 1
 C         0.130674         0.506088         0.362854
 C         1.490610         0.006297         0.081475
 C         2.042088        -0.933995         1.098100
 O         3.434283        -1.391148         0.936615
 C         4.410526        -0.404306         1.466758
 C         4.721650         0.586109         0.453134
 C         3.965188         1.045178        -0.550588
 C         2.464111         0.751180        -0.863955
 O         1.709461        -0.406708        -1.394663
 H         0.105300         1.288093         1.243511
 H        -0.372413         0.907790        -0.515983
 H        -0.584186        -0.109413         0.653618
 H         1.876188        -0.456638         2.034367
 H         1.455278        -1.860732         1.089662
 H         4.024084         0.019834         2.426127
 H         5.301912        -1.025480         1.665348
 H         5.755881         1.102900         0.591802
 H         4.291995         1.883980        -1.198691
 H         2.092373         1.797167        -1.203260
