19
Iteration:    30
 C         0.031437         0.532606         0.152007
 C         1.567101         0.102759         0.108026
 C         1.947188        -0.923694         1.266592
 O         3.284281        -1.436786         1.198045
 C         4.521237        -0.656302         1.104050
 C         4.701412         0.595386         0.221425
 C         3.794846         1.242387        -0.530223
 C         2.390704         0.891291        -0.760137
 O         2.070213        -0.480496        -1.126283
 H        -0.022489         1.444359         0.891027
 H        -0.138323         0.846375        -0.815680
 H        -0.739174        -0.302617         0.406770
 H         1.597647        -0.695477         2.328363
 H         1.497616        -1.811449         0.782044
 H         4.828820        -0.347600         2.146837
 H         5.247694        -1.409795         0.761757
 H         5.589258         1.216213         0.422301
 H         4.107404         2.144792        -1.232551
 H         1.860980         1.642945        -1.522553
