19
Iteration:  3225charge 0 multiplicity 1
 C         0.079266         0.231504         0.261591
 C         1.620673         0.105073         0.122929
 C         1.991156        -1.079542         1.059427
 O         3.356645        -1.582970         1.042314
 C         4.373359        -0.587928         1.256463
 C         4.650392         0.368615         0.192966
 C         3.839977         1.242510        -0.433758
 C         2.359027         1.181807        -0.543779
 O         2.051230        -0.031756        -1.324105
 H        -0.245828         1.120721        -0.318744
 H        -0.468856        -0.562748        -0.028999
 H        -0.189648         0.455893         1.189102
 H         1.760279        -0.745513         2.002524
 H         1.285420        -1.923603         0.927428
 H         4.021427        -0.019649         2.232103
 H         5.345262        -1.131890         1.586405
 H         5.652709         0.425095        -0.071082
 H         4.455198         2.011940        -1.016552
 H         1.843675         2.136579        -0.941281
