19
Iteration:  4341charge 0 multiplicity 1
 C         0.077256         0.457466         0.173720
 C         1.530454         0.041963         0.087564
 C         1.961914        -1.021760         1.015918
 O         3.314497        -1.537395         0.724100
 C         4.410145        -0.746772         1.098964
 C         4.669097         0.570985         0.423889
 C         3.827915         1.380323        -0.184986
 C         2.457200         0.983654        -0.517749
 O         2.056908        -0.293559        -1.192378
 H        -0.383867         0.137185         1.056896
 H         0.207093         1.473325         0.393872
 H        -0.471982         0.464007        -0.787915
 H         1.920348        -0.762011         2.067530
 H         1.212438        -1.934026         1.019816
 H         4.321634        -0.473672         2.173651
 H         5.280542        -1.322694         0.957367
 H         5.714999         0.871319         0.740483
 H         4.124755         2.400973        -0.340930
 H         1.872698         1.915963        -0.922240
