19
Iteration:  4286
 C         0.153110         0.431893         0.305023
 C         1.568336         0.074761         0.009546
 C         2.135334        -0.898804         1.006909
 O         3.335881        -1.513143         0.729911
 C         4.487026        -0.817786         1.224073
 C         4.591594         0.601461         0.745594
 C         3.825115         1.174539        -0.263668
 C         2.430907         0.971058        -0.679153
 O         1.801203        -0.209579        -1.436532
 H        -0.314853        -0.265257         0.997649
 H         0.111589         1.375490         0.769487
 H        -0.451912         0.382928        -0.654844
 H         2.245957        -0.372190         1.964710
 H         1.337697        -1.724593         1.245203
 H         4.415782        -0.710873         2.407970
 H         5.416033        -1.314655         1.124416
 H         5.615898         1.118384         0.973786
 H         4.166884         2.107882        -0.636809
 H         1.907358         1.989294        -1.040703
