19
Iteration:  1990charge 0 multiplicity 1
 C         0.012276         0.272182         0.063403
 C         1.522563         0.101967         0.125096
 C         2.013253        -0.724023         1.355088
 O         3.223543        -1.342901         1.051662
 C         4.409680        -0.684096         1.111327
 C         4.748571         0.523406         0.223019
 C         3.896190         1.222629        -0.518662
 C         2.482914         0.896505        -0.717313
 O         2.013707        -0.414411        -1.140167
 H        -0.523585         0.586014         1.103257
 H        -0.262138         1.058855        -0.659639
 H        -0.370497        -0.695009        -0.044464
 H         2.238153        -0.051144         2.259391
 H         1.406832        -1.573420         1.648842
 H         4.423499        -0.155893         2.084225
 H         5.195588        -1.519884         1.223013
 H         5.807012         0.856163         0.275576
 H         4.272561         2.111821        -0.919713
 H         1.935820         1.666587        -1.214068
