19
Iteration:  3875
 C         0.112676         0.478070         0.355865
 C         1.550674         0.130032        -0.056689
 C         2.118642        -0.830323         1.061987
 O         3.371705        -1.552194         0.867115
 C         4.565902        -0.748106         1.200683
 C         4.530780         0.627996         0.663640
 C         3.812073         1.200771        -0.291386
 C         2.426172         0.935572        -0.810853
 O         1.820145        -0.359816        -1.376992
 H        -0.331837         1.156941        -0.342127
 H        -0.628369        -0.531494         0.303209
 H         0.164451         0.729161         1.451952
 H         2.210848        -0.225626         2.067903
 H         1.250944        -1.684956         1.203163
 H         4.641174        -0.721748         2.247986
 H         5.356112        -1.321024         0.714107
 H         5.454477         1.124807         1.068531
 H         4.334472         2.100304        -0.723231
 H         2.016626         1.903574        -1.281578
