19
Iteration:  3593
 C         0.118300         0.284618         0.162984
 C         1.627629         0.046679         0.128692
 C         2.070391        -1.057575         1.046866
 O         3.337631        -1.569155         1.115521
 C         4.425444        -0.675098         1.226776
 C         4.691954         0.352392         0.159612
 C         3.772094         1.288022        -0.294247
 C         2.395104         1.084486        -0.531403
 O         1.898575         0.030850        -1.369955
 H        -0.127116         0.655753        -0.812050
 H        -0.618302        -0.424571         0.255159
 H        -0.139976         0.959749         0.991898
 H         1.953134        -0.621915         1.982889
 H         1.448372        -1.909207         0.958082
 H         4.246527         0.086724         2.033596
 H         5.397349        -1.251698         1.554432
 H         5.714574         0.557176         0.018883
 H         4.225948         2.062722        -0.873029
 H         1.854981         2.089614        -0.785896
