19
Iteration:  3825charge 0 multiplicity 1
 C         0.049307         0.342171         0.140080
 C         1.543334         0.037899         0.071074
 C         2.000092        -0.925514         1.134266
 O         3.290251        -1.522689         0.898590
 C         4.471402        -0.688807         1.189784
 C         4.735054         0.504469         0.256983
 C         3.803497         1.269657        -0.326576
 C         2.370688         1.061924        -0.516513
 O         2.069689        -0.202209        -1.157965
 H        -0.455976         0.748420        -0.730005
 H        -0.466518        -0.554098         0.239564
 H        -0.227160         0.927280         1.019343
 H         1.960509        -0.442487         2.125994
 H         1.335249        -1.728038         1.148312
 H         4.235927        -0.330028         2.220339
 H         5.249516        -1.448793         0.939912
 H         5.803786         0.682154        -0.109637
 H         4.118542         2.083057        -0.969250
 H         1.957362         1.912795        -1.075789
