19
Iteration:  3658
 C         0.026232         0.399174         0.314706
 C         1.531034         0.037189         0.096961
 C         2.075888        -1.038456         0.998610
 O         3.370581        -1.370905         0.683266
 C         4.363766        -0.630085         1.327859
 C         4.804852         0.523834         0.470641
 C         3.944862         1.191994        -0.343123
 C         2.468454         0.952251        -0.605939
 O         1.785521        -0.246756        -1.287740
 H        -0.237014         1.137656        -0.480303
 H        -0.616480        -0.603913         0.272582
 H         0.083574         0.911932         1.283867
 H         1.954320        -0.578241         2.063740
 H         1.380033        -1.928545         0.941626
 H         3.948760        -0.245426         2.227969
 H         5.219830        -1.435606         1.581517
 H         5.791736         0.904579         0.620981
 H         4.316721         2.083787        -0.785033
 H         2.025080         1.878672        -1.141609
