19
Iteration:  4371charge 0 multiplicity 1
 C        -0.019292         0.244632         0.155763
 C         1.514676         0.128422         0.123178
 C         2.007559        -0.962532         1.098614
 O         3.351513        -1.628481         0.882297
 C         4.490325        -0.775543         1.214710
 C         4.729716         0.482105         0.435932
 C         3.818257         1.226928        -0.261943
 C         2.382384         1.114412        -0.515980
 O         2.018443         0.039133        -1.405967
 H        -0.579742        -0.479906         0.838115
 H        -0.201749         1.291962         0.348420
 H        -0.413133         0.089003        -0.906049
 H         2.185371        -0.314319         2.000252
 H         1.227489        -1.747808         1.140140
 H         4.453831        -0.614424         2.307075
 H         5.273898        -1.505795         0.856319
 H         5.775736         0.686719         0.415100
 H         4.257228         1.926326        -0.927875
 H         1.966135         2.075331        -0.656320
