19
Iteration:  4640charge 0 multiplicity 1
 C         0.031838         0.263469         0.201580
 C         1.521267         0.050319         0.057552
 C         2.019654        -0.935899         1.058717
 O         3.329180        -1.484238         0.917061
 C         4.422824        -0.706805         1.339694
 C         4.725409         0.426156         0.347674
 C         3.906091         1.180249        -0.396112
 C         2.399252         1.113486        -0.538669
 O         1.952440        -0.039571        -1.328126
 H        -0.343291        -0.225155        -0.679184
 H        -0.337939        -0.441422         0.938547
 H        -0.222752         1.300847         0.326671
 H         1.920938        -0.367494         2.001927
 H         1.362369        -1.892939         1.089249
 H         4.492205        -0.490598         2.404498
 H         5.265783        -1.347973         1.238952
 H         5.837486         0.615511         0.330082
 H         4.305549         1.963650        -1.004086
 H         1.842995         2.056057        -0.875937
