19
Iteration:  4048
 C         0.091544         0.433138         0.295815
 C         1.558651         0.057769         0.165590
 C         2.036740        -1.096584         0.961078
 O         3.357903        -1.471159         0.747806
 C         4.298815        -0.527959         1.347817
 C         4.767412         0.524393         0.390225
 C         3.931545         1.173114        -0.416746
 C         2.484471         0.938772        -0.573984
 O         1.853175        -0.190945        -1.250409
 H        -0.131740         1.397793        -0.245067
 H        -0.385544        -0.367847        -0.254646
 H        -0.401027         0.450048         1.355950
 H         1.769526        -0.844096         2.024038
 H         1.436603        -1.883163         0.615137
 H         3.822109        -0.119729         2.169077
 H         5.126672        -1.162094         1.830493
 H         5.915446         0.809587         0.480091
 H         4.458256         1.874432        -1.067978
 H         1.930662         1.880126        -0.867335
