19
Iteration:  2332
 C         0.111671         0.555001         0.235117
 C         1.527819         0.052299         0.087684
 C         2.097698        -0.922426         1.191936
 O         3.340380        -1.481930         1.029816
 C         4.399315        -0.598858         1.295640
 C         4.643641         0.659467         0.368653
 C         3.861671         1.198643        -0.570611
 C         2.418901         0.858178        -0.845739
 O         1.910790        -0.485943        -1.220124
 H         0.149118         1.314260         1.104229
 H        -0.170626         0.921372        -0.757680
 H        -0.529400        -0.229198         0.472880
 H         2.078606        -0.285369         2.139102
 H         1.396801        -1.761834         1.316950
 H         4.347491        -0.210317         2.422802
 H         5.323029        -1.253014         1.154659
 H         5.560631         1.083679         0.654958
 H         4.113193         2.116114        -1.086039
 H         1.928175         1.622125        -1.488049
