19
Iteration:  3653
 C         0.056240         0.344626         0.298039
 C         1.512125         0.064881         0.110165
 C         2.044690        -1.046938         1.010907
 O         3.352823        -1.389635         0.724330
 C         4.382156        -0.630414         1.306525
 C         4.811256         0.515307         0.465724
 C         3.948027         1.178792        -0.369541
 C         2.459480         0.979914        -0.581596
 O         1.810789        -0.222742        -1.330974
 H        -0.369176         1.110268        -0.362892
 H        -0.431688        -0.603836         0.392843
 H         0.015218         0.961607         1.224573
 H         1.972823        -0.640845         2.027683
 H         1.274752        -1.851411         0.979391
 H         4.053294        -0.179448         2.357304
 H         5.070922        -1.356164         1.548630
 H         5.859167         0.905384         0.559582
 H         4.192653         2.170315        -0.870636
 H         2.122645         1.879447        -1.004439
