19
Iteration:  4316charge 0 multiplicity 1
 C         0.035581         0.545361         0.284826
 C         1.521172         0.074034         0.107979
 C         2.035162        -1.054313         1.072159
 O         3.292254        -1.507755         0.602756
 C         4.434026        -0.780324         1.148147
 C         4.626057         0.691802         0.630986
 C         3.820262         1.319724        -0.218915
 C         2.459865         0.899124        -0.719456
 O         2.077524        -0.317652        -1.246225
 H        -0.317033         0.133758         1.275642
 H         0.030630         1.603152         0.585770
 H        -0.561783         0.537230        -0.645440
 H         2.016306        -0.889596         2.176227
 H         1.244200        -1.911478         1.083482
 H         4.240729        -0.710898         2.186156
 H         5.345255        -1.406291         0.921983
 H         5.620069         0.910331         0.836732
 H         4.184076         2.286439        -0.524910
 H         2.044150         1.777562        -1.239621
