19
Iteration:   323charge 0 multiplicity 1
 C         0.204279         0.478524         0.397765
 C         1.595747        -0.009819         0.006578
 C         2.038043        -0.890992         1.157511
 O         3.330015        -1.455388         1.213326
 C         4.369999        -0.487182         1.318732
 C         4.614365         0.462606         0.199212
 C         3.825024         1.218440        -0.583349
 C         2.362982         0.913276        -0.881152
 O         1.984134        -0.434547        -1.318627
 H         0.253230         1.036767         1.422527
 H        -0.173735         1.189161        -0.265139
 H        -0.585433        -0.331329         0.541008
 H         1.722273        -0.359065         2.037530
 H         1.335301        -1.750864         1.164767
 H         4.297366         0.013859         2.267640
 H         5.217376        -1.035538         1.427964
 H         5.605944         0.886629         0.303001
 H         4.354699         2.058032        -1.242463
 H         1.769401         1.772623        -1.316124
