19
Iteration:  4011
 C         0.023895         0.206264         0.290371
 C         1.522570         0.001316        -0.004632
 C         2.078995        -0.921649         1.013030
 O         3.348825        -1.540409         1.040084
 C         4.473808        -0.631813         1.374284
 C         4.708767         0.378179         0.314641
 C         3.871991         1.055852        -0.412383
 C         2.372160         1.068611        -0.533161
 O         1.943146         0.154950        -1.469929
 H        -0.367286         0.970765        -0.479455
 H        -0.560154        -0.764671         0.060700
 H        -0.257274         0.576673         1.282054
 H         1.921314        -0.484411         2.068841
 H         1.406576        -1.807995         1.096982
 H         4.224895        -0.024433         2.343286
 H         5.337910        -1.220148         1.505814
 H         5.680352         0.636789         0.077432
 H         4.228984         1.846545        -1.115852
 H         2.035696         2.036223        -0.433925
