19
Iteration:  2508charge 0 multiplicity 1
 C        -0.002238         0.430388         0.124922
 C         1.473575         0.035270         0.100676
 C         2.110928        -0.744929         1.247050
 O         3.323655        -1.392250         0.751569
 C         4.513244        -0.688877         1.233149
 C         4.673829         0.567165         0.473168
 C         3.865121         1.181558        -0.434770
 C         2.421479         0.870159        -0.740637
 O         1.905079        -0.433978        -1.140492
 H        -0.624198        -0.249587        -0.668559
 H        -0.395264         0.279530         1.146031
 H         0.036373         1.596256        -0.000388
 H         2.396968        -0.143189         2.141621
 H         1.485920        -1.575090         1.614588
 H         4.612922        -0.753367         2.390463
 H         5.279977        -1.387312         0.934134
 H         5.526676         1.235698         0.793960
 H         4.261558         2.129964        -0.897127
 H         2.029168         1.742679        -1.238548
