19
Iteration:  3433
 C        -0.009085         0.264864         0.238379
 C         1.523230         0.085871         0.063947
 C         2.005806        -0.914889         1.159950
 O         3.299410        -1.490610         0.794760
 C         4.411837        -0.740044         1.163156
 C         4.774267         0.475241         0.342803
 C         3.830118         1.216032        -0.370809
 C         2.383424         1.105486        -0.567825
 O         2.082163        -0.144136        -1.189830
 H        -0.269703         0.505684        -0.855531
 H        -0.554829        -0.681803         0.503812
 H        -0.253787         1.008880         1.004846
 H         2.096209        -0.392582         2.083450
 H         1.277052        -1.746075         1.317604
 H         4.339654        -0.432393         2.315244
 H         5.325297        -1.452694         1.206687
 H         5.795019         0.821894         0.205719
 H         4.140634         2.145001        -0.825067
 H         1.913133         1.945027        -0.953339
