19
Iteration:  3983charge 0 multiplicity 1
 C         0.091867         0.162433         0.186596
 C         1.566606         0.001542        -0.088801
 C         2.020126        -1.008818         1.085435
 O         3.289290        -1.561244         1.178270
 C         4.463431        -0.708752         1.271817
 C         4.707616         0.340454         0.234753
 C         3.924404         1.311197        -0.372771
 C         2.389804         1.176925        -0.539447
 O         1.872520         0.099284        -1.368490
 H        -0.387276         0.680499        -0.657004
 H        -0.236098        -0.802421         0.270816
 H        -0.150721         0.790935         1.087598
 H         1.768302        -0.545424         2.008104
 H         1.343744        -1.884205         1.157913
 H         4.528432        -0.135022         2.298370
 H         5.359954        -1.454463         1.220035
 H         5.836399         0.659398         0.073601
 H         4.414283         2.008865        -1.103560
 H         1.909434         2.252773        -0.601016
