19
Iteration:  3130
 C         0.196677         0.423110         0.466582
 C         1.584235         0.075589         0.050117
 C         2.001725        -1.159228         0.920383
 O         3.409081        -1.425457         0.673716
 C         4.260158        -0.519913         1.418553
 C         4.721815         0.604135         0.562504
 C         3.954023         1.066200        -0.493582
 C         2.493594         0.917372        -0.715971
 O         1.758353        -0.170652        -1.300068
 H        -0.227240         1.268399        -0.211226
 H        -0.548489        -0.530458         0.399661
 H         0.132184         0.875822         1.601993
 H         1.799350        -0.955672         1.993828
 H         1.469203        -2.088053         0.757408
 H         3.898334        -0.004192         2.343496
 H         4.956561        -1.216663         1.779808
 H         5.656294         1.036677         0.837129
 H         4.498366         1.887857        -0.984836
 H         2.086215         1.850305        -0.975404
