19
Iteration:  3369
 C        -0.043825         0.322030         0.231334
 C         1.549915         0.084572         0.068281
 C         2.058601        -0.902175         1.100781
 O         3.359062        -1.524141         0.896895
 C         4.467685        -0.797239         1.178803
 C         4.694605         0.492686         0.365701
 C         3.829617         1.289605        -0.321871
 C         2.416120         1.081867        -0.579011
 O         1.980293        -0.179663        -1.293751
 H        -0.461342         0.305660        -0.713765
 H        -0.482546        -0.488246         0.791755
 H        -0.362527         1.206396         0.634165
 H         1.907193        -0.416537         2.145377
 H         1.362521        -1.825118         1.166408
 H         4.579623        -0.548254         2.170323
 H         5.371177        -1.487151         0.916702
 H         5.739764         0.890165         0.437192
 H         4.246174         2.156851        -0.751997
 H         1.945773         2.084552        -0.936181
