19
Iteration:  2284
 C         0.023794         0.434671         0.424543
 C         1.499843        -0.026566        -0.036842
 C         2.044815        -0.902908         1.141603
 O         3.397960        -1.454308         1.119335
 C         4.422156        -0.436946         1.424674
 C         4.737916         0.550127         0.337509
 C         3.961395         1.031283        -0.634415
 C         2.490565         0.864922        -0.843933
 O         1.786851        -0.307499        -1.407760
 H         0.037528         0.547197         1.559884
 H        -0.258811         1.296356        -0.220346
 H        -0.729272        -0.352009         0.052586
 H         1.916184        -0.195027         2.049148
 H         1.398931        -1.807521         1.290119
 H         3.961232         0.240021         2.323205
 H         5.312778        -0.943563         1.741931
 H         5.751887         1.054260         0.431239
 H         4.502329         1.807027        -1.214369
 H         1.930418         1.828662        -1.123422
