19
Iteration:   631
 C        -0.045011         0.265225         0.154751
 C         1.499488         0.087918         0.134926
 C         2.067637        -0.675363         1.322106
 O         3.221558        -1.380239         0.918897
 C         4.407378        -0.614889         1.327230
 C         4.789274         0.537553         0.269273
 C         3.950232         1.130504        -0.568893
 C         2.443850         0.897957        -0.780127
 O         1.988569        -0.399992        -1.198678
 H        -0.369575         0.434356         1.137956
 H        -0.345909         1.195569        -0.430888
 H        -0.411414        -0.662371        -0.249001
 H         2.191730        -0.000941         2.194895
 H         1.414571        -1.410483         1.725341
 H         4.425619        -0.146753         2.342931
 H         5.251662        -1.418043         1.401577
 H         5.821565         0.849960         0.460693
 H         4.289435         1.935213        -1.065456
 H         1.959600         1.629081        -1.314928
