19
Iteration:  2224
 C         0.001960         0.436801         0.234736
 C         1.532560        -0.040866         0.098418
 C         2.039568        -1.046892         1.125597
 O         3.389801        -1.400581         1.082421
 C         4.232927        -0.264920         1.359408
 C         4.844243         0.405017         0.085129
 C         3.907548         1.030797        -0.636153
 C         2.449193         0.972560        -0.528233
 O         1.978114        -0.278725        -1.202375
 H        -0.420949         0.972009         1.040639
 H        -0.122194         1.111300        -0.612420
 H        -0.496855        -0.527771         0.101593
 H         1.764743        -0.648140         2.100805
 H         1.504906        -1.988085         1.016296
 H         3.638457         0.494056         1.949325
 H         5.046515        -0.574560         2.120370
 H         5.826092         0.307350        -0.220543
 H         4.151053         1.379841        -1.613611
 H         2.080288         1.902995        -0.782042
