19
Iteration:  4561charge 0 multiplicity 1
 C         0.031210         0.399360         0.224013
 C         1.554550         0.021519         0.084204
 C         2.053517        -1.075328         0.990130
 O         3.355315        -1.551802         0.944431
 C         4.360051        -0.647709         1.352098
 C         4.743641         0.526715         0.354835
 C         3.890398         1.214338        -0.401870
 C         2.452133         1.012317        -0.532593
 O         1.911635        -0.070858        -1.347967
 H        -0.580842        -0.226554        -0.370358
 H        -0.151502         0.362923         1.328602
 H        -0.206417         1.373040        -0.085680
 H         1.851722        -0.763308         2.010362
 H         1.557076        -2.064474         0.739530
 H         3.962045        -0.076454         2.190469
 H         5.222859        -1.188188         1.541892
 H         5.776708         0.536867         0.182579
 H         4.232240         2.031337        -1.070184
 H         1.987310         2.036600        -0.820552
