19
Iteration:  1692charge 0 multiplicity 1
 C         0.159381         0.560563         0.294915
 C         1.588582        -0.038757         0.042897
 C         2.004442        -0.995631         1.113466
 O         3.364905        -1.425686         1.029316
 C         4.303876        -0.421874         1.404869
 C         4.660150         0.554799         0.260672
 C         3.827561         1.066571        -0.648696
 C         2.442597         0.901257        -0.715424
 O         1.974774        -0.372138        -1.207641
 H         0.154270         1.545717         0.873332
 H        -0.345015         0.634335        -0.718599
 H        -0.416416        -0.208688         0.913351
 H         1.671318        -0.717965         2.169269
 H         1.441748        -1.918392         0.946282
 H         3.996729         0.100496         2.307299
 H         5.220643        -1.100148         1.501016
 H         5.746002         0.894134         0.348369
 H         4.270155         1.775036        -1.357320
 H         1.935933         1.703860        -1.120455
