19
Iteration:   560
 C         0.128392         0.375019         0.227785
 C         1.549815        -0.019209        -0.002408
 C         1.981945        -0.848033         1.227350
 O         3.283201        -1.436827         1.283478
 C         4.402309        -0.593443         1.221667
 C         4.691896         0.503796         0.223362
 C         3.824109         1.217413        -0.585780
 C         2.418826         0.968933        -0.740479
 O         2.003544        -0.353598        -1.316893
 H         0.046798         1.151407         1.082661
 H        -0.283475         0.922815        -0.635435
 H        -0.497704        -0.535534         0.449490
 H         1.861780        -0.266609         2.162657
 H         1.317496        -1.723513         1.437531
 H         4.713332        -0.239225         2.287093
 H         5.303231        -1.254384         0.981419
 H         5.724523         0.834549         0.333262
 H         4.319288         2.168244        -1.058405
 H         1.882818         1.800748        -1.318720
