19
Iteration:  2809
 C         0.116973         0.302344         0.172724
 C         1.575403        -0.030453         0.039652
 C         2.064389        -0.959450         1.125840
 O         3.275680        -1.619422         1.127405
 C         4.438411        -0.688696         1.129624
 C         4.673894         0.446914         0.230524
 C         3.761774         1.280010        -0.345180
 C         2.415303         1.127875        -0.572095
 O         2.019993        -0.017102        -1.340468
 H        -0.287957         0.452702        -0.912274
 H        -0.397689        -0.592223         0.696009
 H        -0.212662         1.199433         0.817314
 H         1.834265        -0.480392         2.132761
 H         1.247702        -1.735721         1.147728
 H         4.424143        -0.494441         2.283257
 H         5.190498        -1.397166         1.006474
 H         5.741936         0.813439         0.313610
 H         4.252676         2.171062        -0.719063
 H         1.871293         1.979492        -0.690175
