19
Iteration:  3054charge 0 multiplicity 1
 C         0.169103         0.431785         0.393911
 C         1.566641         0.025602         0.045319
 C         2.013777        -1.086946         0.952581
 O         3.370428        -1.559797         0.841789
 C         4.360026        -0.594622         1.324516
 C         4.697145         0.597235         0.493192
 C         3.917935         1.179853        -0.417588
 C         2.467285         1.016285        -0.641182
 O         1.812084        -0.145471        -1.352508
 H        -0.388167         0.775857        -0.516256
 H        -0.425440        -0.517377         0.640114
 H         0.068221         1.203871         1.249578
 H         1.747289        -0.677687         1.947808
 H         1.449418        -2.045299         0.763565
 H         4.008878        -0.275744         2.401952
 H         5.207379        -1.259347         1.404722
 H         5.696216         0.876756         0.557731
 H         4.424801         2.006314        -1.009396
 H         1.934921         1.839850        -1.044250
