19
Iteration:  2599charge 0 multiplicity 1
 C         0.089678         0.399579         0.163681
 C         1.498534         0.007883         0.103868
 C         2.049526        -1.119507         1.171132
 O         3.339038        -1.451165         0.966430
 C         4.329169        -0.541173         1.276703
 C         4.772992         0.495236         0.233230
 C         3.925197         1.169791        -0.520228
 C         2.416378         1.050217        -0.537279
 O         1.930739        -0.209610        -1.229123
 H        -0.350953         0.042287         1.095439
 H        -0.162268         1.558594         0.091954
 H        -0.477411        -0.023806        -0.773001
 H         1.873592        -0.647311         2.167431
 H         1.406726        -2.007137         1.054067
 H         4.016144         0.074745         2.228086
 H         5.321619        -1.107147         1.438513
 H         5.859049         0.763273         0.422532
 H         4.254393         1.939302        -1.185303
 H         1.913407         1.905153        -0.987268
