19
Iteration:  1453
 C         0.156855         0.419414         0.105602
 C         1.582431         0.040415         0.133708
 C         2.041501        -0.814407         1.229920
 O         3.197135        -1.449356         1.113125
 C         4.366777        -0.613056         1.146867
 C         4.655273         0.541223         0.131690
 C         3.815053         1.232676        -0.544248
 C         2.419974         0.965351        -0.717764
 O         2.122532        -0.482746        -1.023011
 H        -0.150389         1.309023         0.668814
 H        -0.226543         0.738554        -0.915609
 H        -0.590308        -0.265147         0.417807
 H         1.918383        -0.298292         2.226736
 H         1.350111        -1.698521         1.332008
 H         4.255458         0.053899         2.050476
 H         5.192734        -1.205323         1.189289
 H         5.677440         0.870035         0.333673
 H         4.200448         2.060862        -1.044816
 H         1.754706         1.550619        -1.476160
