19
Iteration:  1035charge 0 multiplicity 1
 C         0.070731         0.344752         0.045808
 C         1.577249         0.110802         0.104648
 C         2.052457        -0.691366         1.394578
 O         3.153132        -1.440552         1.084615
 C         4.354552        -0.656633         1.112556
 C         4.650285         0.535753         0.221687
 C         3.809392         1.249974        -0.546807
 C         2.424887         0.898407        -0.769167
 O         2.193689        -0.483913        -1.050387
 H        -0.387103         0.683799         1.003153
 H        -0.155182         1.068565        -0.680096
 H        -0.487618        -0.563909        -0.240177
 H         2.305518         0.041339         2.251044
 H         1.270895        -1.402751         1.795192
 H         4.678461        -0.381819         2.147841
 H         5.099258        -1.366240         0.808846
 H         5.630188         0.949932         0.207606
 H         4.375240         2.145527        -1.105734
 H         1.792839         1.580865        -1.442217
