19
Iteration:  3927charge 0 multiplicity 1
 C         0.050883         0.468642         0.213107
 C         1.442888        -0.013606         0.083551
 C         2.106387        -0.962515         1.132622
 O         3.307339        -1.423130         0.666782
 C         4.363716        -0.694074         1.187919
 C         4.755938         0.599615         0.458553
 C         3.852728         1.298138        -0.308370
 C         2.463918         0.923194        -0.554812
 O         1.956366        -0.362220        -1.209421
 H        -0.019506         1.133219        -0.676968
 H        -0.599186        -0.286007         0.085824
 H        -0.115889         1.000017         1.165620
 H         2.219154        -0.388729         2.013797
 H         1.413179        -1.733303         1.221723
 H         4.199084        -0.502119         2.367628
 H         5.213448        -1.459753         1.222731
 H         5.817131         0.812150         0.570855
 H         4.190600         2.301582        -0.686151
 H         1.969065         1.723108        -1.119480
