19
Iteration:  1776
 C         0.029218         0.300484         0.447052
 C         1.505229         0.087166         0.013049
 C         2.027516        -0.896419         1.111850
 O         3.422032        -1.388883         1.110561
 C         4.334992        -0.363233         1.469976
 C         4.723762         0.487135         0.376341
 C         4.035199         0.865554        -0.709702
 C         2.467538         0.890222        -0.843063
 O         1.803655        -0.212929        -1.433382
 H        -0.101233         0.371484         1.464439
 H        -0.396709         1.257493         0.113801
 H        -0.607373        -0.636521         0.208654
 H         1.923758        -0.283609         1.968173
 H         1.272462        -1.766501         1.048690
 H         4.140217         0.363546         2.376911
 H         5.157701        -0.852966         1.882898
 H         5.839981         0.730971         0.364302
 H         4.492241         1.453163        -1.453779
 H         2.132884         2.010704        -1.162108
