19
Iteration:  1044charge 0 multiplicity 1
 C         0.086237         0.330763         0.044456
 C         1.543677         0.096826         0.121361
 C         2.014385        -0.681245         1.433028
 O         3.163886        -1.478175         1.087044
 C         4.343228        -0.713018         1.076005
 C         4.631764         0.571925         0.193061
 C         3.810793         1.289744        -0.582982
 C         2.394142         0.959673        -0.806770
 O         2.277992        -0.494002        -0.986782
 H        -0.081777         0.657479         0.992077
 H        -0.144550         1.182339        -0.574327
 H        -0.469845        -0.505446        -0.233298
 H         2.187621         0.048219         2.225493
 H         1.227533        -1.444479         1.668989
 H         4.410398        -0.221854         2.148046
 H         5.088803        -1.396909         0.936447
 H         5.658417         0.654652         0.260629
 H         4.231338         2.170135        -1.180588
 H         1.879922         1.618067        -1.531590
