19
Iteration:  1517
 C        -0.096292         0.250631         0.114527
 C         1.460343         0.093545        -0.007434
 C         2.223811        -0.523995         1.286676
 O         3.310758        -1.313042         1.129953
 C         4.632416        -0.735608         1.285380
 C         4.737912         0.473892         0.421366
 C         3.869762         1.098109        -0.381923
 C         2.361641         0.865190        -0.877368
 O         1.792277        -0.380324        -1.352820
 H        -0.339829         0.217897         1.187176
 H        -0.390926         1.171640        -0.464236
 H        -0.354176        -0.744462        -0.230755
 H         2.481903         0.413826         1.866208
 H         1.452741        -1.052225         1.780278
 H         4.723069        -0.624125         2.341066
 H         5.350863        -1.673486         1.024334
 H         5.730662         0.936895         0.421115
 H         4.238668         1.894443        -0.899521
 H         2.119734         1.763043        -1.510960
