19
Iteration:  4131charge 0 multiplicity 1
 C         0.128848         0.393257         0.391533
 C         1.565199         0.097111        -0.018735
 C         2.096877        -1.049090         0.938279
 O         3.406560        -1.575762         0.968992
 C         4.390688        -0.614795         1.464810
 C         4.668828         0.581396         0.551414
 C         3.969802         1.138582        -0.422983
 C         2.462114         0.956835        -0.738210
 O         1.680670        -0.088854        -1.482968
 H        -0.500797         0.693366        -0.506781
 H        -0.403454        -0.490167         0.749875
 H         0.201524         1.093654         1.176463
 H         1.878027        -0.675984         1.941847
 H         1.381881        -1.981033         0.779250
 H         4.136540        -0.397442         2.439120
 H         5.275250        -1.173538         1.350470
 H         5.647527         1.017322         0.552344
 H         4.416267         1.949140        -1.074408
 H         2.125439         2.031845        -1.143935
