19
Iteration:  4325
 C         0.065316         0.608442         0.300156
 C         1.506937         0.029904         0.122513
 C         2.026524        -1.091956         1.068311
 O         3.246286        -1.552615         0.639303
 C         4.401797        -0.718137         1.104622
 C         4.740119         0.667394         0.542269
 C         3.784232         1.366741        -0.148910
 C         2.454046         0.928843        -0.655567
 O         2.113806        -0.334325        -1.234967
 H        -0.543930        -0.135971         0.939164
 H        -0.197901         1.743374         0.366305
 H        -0.413732         0.226385        -0.605737
 H         2.002462        -0.679490         2.129798
 H         1.397499        -1.856417         0.789788
 H         4.193133        -0.631191         2.168170
 H         5.151725        -1.581145         0.891169
 H         5.697852         1.083950         0.751404
 H         4.102555         2.331653        -0.631451
 H         2.052484         1.663967        -1.231110
