19
Iteration:  4354
 C         0.080932         0.420086         0.125560
 C         1.527819        -0.039457         0.035343
 C         2.063524        -1.030602         1.118385
 O         3.290571        -1.533281         0.808703
 C         4.447926        -0.797106         1.147323
 C         4.651821         0.495052         0.422650
 C         3.850611         1.329442        -0.242612
 C         2.398356         1.099590        -0.498523
 O         2.015617        -0.115496        -1.247707
 H        -0.432716        -0.197076         0.813049
 H        -0.087161         1.479203         0.408901
 H        -0.507218         0.163011        -0.750125
 H         1.917946        -0.557212         2.098001
 H         1.411531        -1.942310         0.914494
 H         4.492364        -0.555225         2.263503
 H         5.272505        -1.497476         1.055004
 H         5.725030         0.894507         0.469197
 H         4.212146         2.340876        -0.573463
 H         1.792661         2.000718        -0.933471
