19
Iteration:  2520charge 0 multiplicity 1
 C        -0.003747         0.438463         0.226172
 C         1.507299         0.034697         0.035496
 C         2.164386        -0.778771         1.268843
 O         3.312680        -1.416956         0.808535
 C         4.475731        -0.712703         1.164535
 C         4.662833         0.655983         0.579380
 C         3.900548         1.152231        -0.416861
 C         2.461786         0.895139        -0.749771
 O         1.862627        -0.447072        -1.270776
 H        -0.729005        -0.218020        -0.372624
 H        -0.326353         0.367121         1.278825
 H        -0.339393         1.480291        -0.252929
 H         2.311099        -0.032080         2.103702
 H         1.415386        -1.519591         1.593332
 H         4.371464        -0.427385         2.273417
 H         5.411450        -1.258006         1.005247
 H         5.774848         0.962085         0.675546
 H         4.265846         2.093399        -0.866757
 H         1.957484         1.619029        -1.299851
