19
Iteration:  4190charge 0 multiplicity 1
 C         0.012032         0.339470         0.102331
 C         1.525148         0.046375         0.205439
 C         1.991208        -1.064824         1.031408
 O         3.311425        -1.551652         0.825746
 C         4.278264        -0.544442         1.210454
 C         4.841070         0.445318         0.183235
 C         3.910690         1.242533        -0.335064
 C         2.451166         1.115449        -0.358963
 O         2.028494        -0.181943        -1.165568
 H        -0.315216        -0.006563        -0.848640
 H        -0.501167        -0.140329         0.937579
 H        -0.318966         1.444607         0.055392
 H         1.994288        -0.638765         2.118476
 H         1.376263        -1.877155         1.009699
 H         3.862681         0.106709         1.945301
 H         5.071383        -0.951871         1.857627
 H         5.975804         0.600302        -0.153001
 H         4.281775         1.836000        -1.117259
 H         1.970775         1.876577        -0.788804
