19
Iteration:  4191charge 0 multiplicity 1
 C         0.009977         0.339237         0.094432
 C         1.528659         0.052114         0.209037
 C         1.998167        -1.067713         1.024671
 O         3.309241        -1.561267         0.827377
 C         4.274049        -0.542790         1.203552
 C         4.842869         0.451878         0.172760
 C         3.909525         1.240928        -0.337785
 C         2.449511         1.115566        -0.352932
 O         2.030954        -0.180124        -1.155031
 H        -0.325988        -0.011068        -0.842643
 H        -0.528302        -0.138106         0.962474
 H        -0.297953         1.434402         0.034512
 H         1.989232        -0.635020         2.120990
 H         1.352366        -1.862559         1.030341
 H         3.856737         0.130655         1.990789
 H         5.068742        -0.976335         1.879400
 H         5.949715         0.610645        -0.113912
 H         4.285004         1.859688        -1.127407
 H         2.005821         1.849644        -0.812187
