19
Iteration:  2076charge 0 multiplicity 1
 C         0.068488         0.398357         0.228927
 C         1.559714         0.076662         0.064876
 C         1.978739        -0.862732         1.199334
 O         3.347835        -1.484093         1.105947
 C         4.419343        -0.512402         1.258422
 C         4.725920         0.465574         0.266764
 C         3.897213         1.204899        -0.539942
 C         2.428918         0.941622        -0.783962
 O         1.915026        -0.415230        -1.240290
 H        -0.108734         1.017430         1.194069
 H        -0.280974         1.032783        -0.608973
 H        -0.515128        -0.454928         0.163125
 H         1.881065        -0.413504         2.184622
 H         1.174586        -1.632967         1.087240
 H         4.333047         0.054515         2.314425
 H         5.361962        -1.099845         1.342053
 H         5.721560         0.888651         0.431622
 H         4.345556         2.074995        -0.970334
 H         1.888538         1.838899        -1.278976
