19
Iteration:   215charge 0 multiplicity 1
 C        -0.072762         0.285599         0.263297
 C         1.453895         0.109236         0.011606
 C         2.049448        -0.634529         1.253489
 O         3.243843        -1.388428         1.078554
 C         4.493868        -0.671831         1.135048
 C         4.779144         0.542597         0.371569
 C         3.900563         1.138877        -0.530412
 C         2.425226         0.884103        -0.781098
 O         2.031942        -0.395013        -1.215519
 H        -0.228197         0.921850         1.213415
 H        -0.657922         0.731720        -0.443316
 H        -0.603626        -0.711533         0.448574
 H         2.204847         0.176976         2.012608
 H         1.365701        -1.496997         1.514750
 H         4.546924        -0.374641         2.232475
 H         5.284811        -1.461770         0.897247
 H         5.811904         0.933382         0.483488
 H         4.425775         1.755781        -1.277889
 H         2.029443         1.682115        -1.527416
