19
Iteration:   134charge 0 multiplicity 1
 C         0.001154         0.218150         0.135942
 C         1.510035         0.090277         0.053006
 C         2.075949        -0.513645         1.347867
 O         3.189695        -1.214599         0.964166
 C         4.481397        -0.747774         1.072502
 C         4.732776         0.470026         0.355274
 C         3.814155         1.134119        -0.431047
 C         2.472287         0.868611        -0.740902
 O         2.022346        -0.470461        -1.126228
 H        -0.250930         0.405467         1.118153
 H        -0.296633         1.168611        -0.474601
 H        -0.444111        -0.654443        -0.220961
 H         2.130274         0.292866         2.156467
 H         1.336753        -1.187354         1.800329
 H         4.889997        -0.758183         2.142764
 H         5.058496        -1.434591         0.580751
 H         5.773381         0.882081         0.394119
 H         4.298644         1.928693        -1.006684
 H         2.000048         1.552271        -1.361905
