19
Iteration:  2887
 C         0.059357         0.350254         0.140134
 C         1.493925         0.054814         0.116035
 C         2.118669        -0.703473         1.211958
 O         3.291965        -1.383258         0.633252
 C         4.530699        -0.832128         1.083099
 C         4.728754         0.595527         0.619984
 C         3.793015         1.187646        -0.214787
 C         2.390294         0.936544        -0.634572
 O         1.879041        -0.380415        -1.230321
 H        -0.061916         1.283894        -0.610489
 H        -0.526217        -0.571979        -0.268913
 H        -0.447826         0.712445         1.104437
 H         2.654928         0.061376         1.910694
 H         1.455065        -1.489598         1.716911
 H         4.464594        -0.858146         2.268948
 H         5.279098        -1.464485         0.691242
 H         5.731974         1.182531         0.803478
 H         4.217974         2.013678        -0.699012
 H         2.058367         1.746350        -1.189954
