19
Iteration:  1582charge 0 multiplicity 1
 C         0.045878         0.487672         0.089426
 C         1.525765         0.106379         0.131309
 C         2.009968        -0.818202         1.322493
 O         3.189813        -1.473258         1.092578
 C         4.409053        -0.632912         1.073760
 C         4.696222         0.576738         0.217574
 C         3.834510         1.334462        -0.527530
 C         2.450699         0.843739        -0.801960
 O         2.131708        -0.528839        -1.033713
 H        -0.117595         1.016128         1.008264
 H        -0.400258         0.921331        -0.851381
 H        -0.495403        -0.509061         0.174717
 H         2.154083        -0.245648         2.248687
 H         1.277553        -1.592107         1.455372
 H         4.638213        -0.128510         2.060197
 H         5.318345        -1.382817         1.112977
 H         5.722533         0.999596         0.319858
 H         4.078148         2.243292        -0.947422
 H         1.960711         1.400032        -1.532974
