19
Iteration:  2696charge 0 multiplicity 1
 C         0.257927         0.593268         0.399511
 C         1.552434         0.021577         0.018559
 C         2.088106        -1.210425         0.926122
 O         3.437441        -1.557639         0.988417
 C         4.353068        -0.587667         1.408283
 C         4.539258         0.552104         0.438489
 C         3.837072         1.191740        -0.434106
 C         2.390809         0.971961        -0.754208
 O         1.857681        -0.168003        -1.408569
 H         0.415478         1.669344         0.563901
 H        -0.611491         0.190222        -0.226505
 H        -0.187255         0.176657         1.428620
 H         1.758471        -0.937374         1.967931
 H         1.572386        -2.098690         0.617785
 H         4.094916        -0.079451         2.351034
 H         5.290184        -1.012933         1.492687
 H         5.579939         0.905281         0.519653
 H         4.307931         2.093943        -0.862576
 H         1.779757         1.780149        -1.129807
