19
Iteration:  1638
 C        -0.071979         0.292357         0.218368
 C         1.489255        -0.012600         0.037400
 C         2.119789        -0.672320         1.188867
 O         3.333356        -1.395281         1.049666
 C         4.559730        -0.559787         1.408009
 C         4.744301         0.454391         0.380076
 C         3.929534         1.008219        -0.554105
 C         2.367384         0.931085        -0.734644
 O         1.829344        -0.283088        -1.388159
 H        -0.158281         1.376805         0.514736
 H        -0.365155         0.307880        -0.865461
 H        -0.503722        -0.345003         0.975397
 H         2.231361         0.014036         2.044137
 H         1.439875        -1.407467         1.542270
 H         4.443909        -0.047734         2.448432
 H         5.419876        -1.383261         1.364424
 H         5.800412         0.857315         0.399980
 H         4.426505         1.820553        -1.156175
 H         1.945438         1.830539        -1.141997
