19
Iteration:  1326charge 0 multiplicity 1
 C         0.179309         0.597472         0.157011
 C         1.537671        -0.081825         0.110403
 C         1.960004        -1.134982         1.232167
 O         3.304817        -1.424782         1.107694
 C         4.389227        -0.340882         1.397181
 C         4.692805         0.539307         0.216553
 C         3.853125         1.146033        -0.699312
 C         2.434445         0.851406        -0.680234
 O         1.963453        -0.370153        -1.239512
 H        -0.187035         0.949308         1.161769
 H         0.247910         1.531856        -0.445638
 H        -0.702384        -0.086972        -0.036468
 H         1.779667        -0.611765         2.312190
 H         1.557390        -2.110906         1.030785
 H         4.101876         0.350504         2.249236
 H         5.320415        -1.052876         1.750197
 H         5.762355         0.769623        -0.086573
 H         4.191485         1.880239        -1.409536
 H         2.022265         1.644107        -1.176052
