19
Iteration:  4074charge 0 multiplicity 1
 C         0.110147         0.625473         0.417900
 C         1.522048        -0.048411         0.061086
 C         2.001702        -1.238660         1.001176
 O         3.334314        -1.448298         0.685028
 C         4.265099        -0.502663         1.319232
 C         4.690468         0.646456         0.477112
 C         3.975137         1.210261        -0.462182
 C         2.481666         0.914436        -0.646661
 O         1.983717        -0.329689        -1.227663
 H         0.138005         1.624815         0.116511
 H        -0.759233         0.015824         0.064553
 H         0.044215         0.730252         1.464458
 H         1.649052        -1.178605         2.001676
 H         1.362275        -2.120269         0.488213
 H         3.782111        -0.213775         2.227332
 H         5.067221        -1.101907         1.702288
 H         5.689782         0.924934         0.621608
 H         4.460539         2.100883        -0.865281
 H         1.873917         1.850121        -1.120738
