19
Iteration:  1912charge 0 multiplicity 1
 C         0.083348         0.448779         0.270400
 C         1.491571        -0.018283        -0.045234
 C         2.092222        -0.637056         1.190981
 O         3.334331        -1.404610         1.040626
 C         4.588778        -0.642098         1.306004
 C         4.652690         0.598528         0.559265
 C         3.825639         1.083044        -0.445163
 C         2.373706         0.832642        -0.906281
 O         1.819152        -0.450306        -1.368889
 H        -0.059008         1.433432         0.933165
 H        -0.389410         0.574533        -0.698364
 H        -0.410802        -0.380549         0.611302
 H         2.259447         0.093565         2.000088
 H         1.504225        -1.370355         1.665545
 H         4.883141        -0.421911         2.415528
 H         5.515516        -1.255103         1.000045
 H         5.615930         1.003497         0.618392
 H         4.428149         1.836660        -1.005860
 H         1.837549         1.640567        -1.409677
