19
Iteration:  1243charge 0 multiplicity 1
 C         0.002335         0.284592         0.319491
 C         1.443485         0.065693        -0.051914
 C         2.066696        -0.808733         1.166407
 O         3.376186        -1.373343         1.034508
 C         4.383992        -0.433131         1.458534
 C         4.811375         0.465473         0.386595
 C         3.971623         0.891771        -0.642911
 C         2.457400         0.882836        -0.732799
 O         1.838645        -0.210035        -1.378807
 H        -0.051116         0.829185         1.236070
 H        -0.542098         0.728197        -0.460379
 H        -0.379154        -0.774097         0.500674
 H         1.930690        -0.064332         1.956377
 H         1.288770        -1.580339         1.553116
 H         4.100405         0.111641         2.344073
 H         5.154459        -1.109566         1.680538
 H         5.812460         0.932599         0.448571
 H         4.537686         1.584306        -1.494605
 H         2.013835         1.964583        -1.063156
