19
Iteration:  3831charge 0 multiplicity 1
 C         0.092195         0.378977         0.179819
 C         1.537055         0.034203         0.056660
 C         2.011561        -0.917828         1.164016
 O         3.299996        -1.535851         0.899438
 C         4.444998        -0.705860         1.154938
 C         4.660706         0.524741         0.284398
 C         3.772009         1.287520        -0.329299
 C         2.390017         1.059811        -0.506661
 O         2.071299        -0.234273        -1.245123
 H        -0.274602         0.852192        -0.745993
 H        -0.452325        -0.731898         0.370151
 H         0.013900         0.924649         1.155851
 H         1.962553        -0.302920         2.105032
 H         1.205479        -1.762011         1.176095
 H         4.438932        -0.428828         2.270752
 H         5.325679        -1.352383         1.150093
 H         5.721537         0.722681         0.123399
 H         4.249100         2.097349        -0.908892
 H         1.913296         1.837131        -1.170347
