19
Iteration:  2417
 C         0.034006         0.144067         0.180657
 C         1.589286         0.095075        -0.001873
 C         2.115594        -0.593824         1.234081
 O         3.248543        -1.502346         1.196766
 C         4.499938        -0.784970         1.184447
 C         4.659183         0.480880         0.332574
 C         3.881291         1.240049        -0.485821
 C         2.380182         1.017243        -0.781482
 O         1.922752        -0.244458        -1.264833
 H        -0.328550         1.260167        -0.206492
 H        -0.472243        -0.526306        -0.602578
 H        -0.494967        -0.023689         1.085628
 H         2.344913         0.145552         2.024018
 H         1.414246        -1.335590         1.601289
 H         4.700105        -0.512327         2.198206
 H         5.236934        -1.469239         0.963389
 H         5.674795         0.743351         0.258061
 H         4.430402         2.083736        -0.908937
 H         1.782370         1.871389        -1.226375
