19
Iteration:  1390charge 0 multiplicity 1
 C         0.057549         0.381777         0.326092
 C         1.510807         0.043296        -0.008309
 C         2.124342        -0.765505         1.184549
 O         3.340726        -1.314055         0.995508
 C         4.479773        -0.508135         1.446244
 C         4.686966         0.565371         0.452453
 C         3.918039         0.917131        -0.576524
 C         2.465465         0.812370        -0.809635
 O         1.770275        -0.338410        -1.409386
 H         0.017584         1.315521         0.957970
 H        -0.473052         0.371486        -0.664331
 H        -0.319889        -0.510366         0.753123
 H         2.097913        -0.046994         1.992194
 H         1.278172        -1.525834         1.425850
 H         4.258079        -0.123517         2.463755
 H         5.269522        -1.340880         1.697340
 H         5.656370         1.100105         0.478634
 H         4.386680         1.557004        -1.327234
 H         2.079185         1.756845        -1.299758
