19
Iteration:  2917charge 0 multiplicity 1
 C        -0.038768         0.382498         0.308900
 C         1.479946         0.112546         0.016686
 C         2.120141        -0.761513         1.182228
 O         3.298142        -1.460889         0.753628
 C         4.554952        -0.870000         1.136452
 C         4.654826         0.625254         0.575907
 C         3.816752         1.199589        -0.255195
 C         2.429357         0.937817        -0.781231
 O         1.982496        -0.363945        -1.313156
 H        -0.340395         1.449988        -0.102855
 H        -0.719794        -0.317144        -0.324698
 H        -0.254860         0.368308         1.442204
 H         2.378997         0.035653         1.995000
 H         1.491420        -1.462829         1.693757
 H         4.639513        -0.829989         2.187269
 H         5.364045        -1.539519         0.742938
 H         5.399606         1.359599         0.972252
 H         4.076766         2.231056        -0.431398
 H         2.212403         1.850802        -1.397359
