19
Iteration:  3434charge 0 multiplicity 1
 C        -0.011801         0.269770         0.241118
 C         1.528235         0.089671         0.063422
 C         2.012366        -0.922585         1.153123
 O         3.291204        -1.500857         0.800747
 C         4.413986        -0.739033         1.165585
 C         4.770329         0.479285         0.342846
 C         3.836622         1.231772        -0.367878
 C         2.384835         1.102864        -0.576990
 O         2.076929        -0.151937        -1.193549
 H        -0.258362         0.537078        -0.786456
 H        -0.549030        -0.672463         0.497842
 H        -0.237899         0.990095         0.974871
 H         2.093757        -0.397963         2.107795
 H         1.256827        -1.759076         1.325011
 H         4.335858        -0.420746         2.323936
 H         5.362483        -1.468046         1.208106
 H         5.803198         0.851631         0.193626
 H         4.151600         2.147061        -0.807372
 H         1.885113         1.971231        -0.970132
