19
Iteration:  3075
 C         0.267624         0.612372         0.443422
 C         1.539599         0.001983         0.033877
 C         2.093928        -1.172113         0.917602
 O         3.445034        -1.562122         0.896656
 C         4.345273        -0.677419         1.392340
 C         4.588317         0.582341         0.465773
 C         3.799032         1.249171        -0.400041
 C         2.397707         0.971786        -0.719763
 O         1.848302        -0.213007        -1.407452
 H        -0.069893         1.370768        -0.370594
 H        -0.673860        -0.075164         0.607981
 H         0.547420         1.206473         1.431778
 H         1.725763        -1.058500         1.888769
 H         1.670975        -2.010703         0.371981
 H         4.002087        -0.144800         2.441364
 H         5.226873        -1.281103         1.524827
 H         5.534140         1.001183         0.649535
 H         4.044657         2.272471        -0.806299
 H         1.867908         1.768266        -1.133590
