19
Iteration:  4036
 C         0.048457         0.326840         0.247404
 C         1.541519         0.062784         0.059981
 C         2.053378        -1.049645         1.034771
 O         3.399880        -1.504207         0.810074
 C         4.331244        -0.571637         1.399349
 C         4.753180         0.495434         0.430920
 C         3.971537         1.119618        -0.452121
 C         2.446498         1.117854        -0.513968
 O         1.809500        -0.133954        -1.326898
 H        -0.200148         1.318238        -0.302180
 H        -0.573987        -0.448680        -0.202057
 H        -0.247780         0.477095         1.365912
 H         1.954095        -0.852657         2.144711
 H         1.472651        -1.891520         0.871965
 H         3.942510        -0.135961         2.280916
 H         5.271128        -1.153952         1.638288
 H         5.845808         0.462506         0.078893
 H         4.354295         1.837135        -1.222774
 H         2.027762         2.059430        -0.823589
