19
Iteration:  1866charge 0 multiplicity 1
 C         0.090725         0.347240         0.191858
 C         1.588547         0.083274         0.134551
 C         1.977742        -0.845321         1.256736
 O         3.270556        -1.368599         0.967813
 C         4.332642        -0.492350         1.289391
 C         4.789189         0.498843         0.192517
 C         3.891629         1.199750        -0.536777
 C         2.489596         0.875213        -0.708549
 O         1.924008        -0.456361        -1.188648
 H        -0.040173         1.374994         0.649098
 H        -0.263778         0.526684        -0.824690
 H        -0.561270        -0.418237         0.610524
 H         2.037346        -0.369558         2.263266
 H         1.294486        -1.729641         1.371208
 H         4.153526        -0.061685         2.363975
 H         5.210778        -1.084085         1.563831
 H         5.840522         0.694282         0.338805
 H         4.287959         2.035750        -1.234075
 H         1.952216         1.697308        -1.363330
