19
Iteration:  1280charge 0 multiplicity 1
 C         0.046638         0.293088         0.257777
 C         1.538501         0.053121         0.066742
 C         1.966057        -0.905949         1.156919
 O         3.365287        -1.335079         1.076863
 C         4.331328        -0.404191         1.492231
 C         4.818404         0.373828         0.250892
 C         3.960080         1.015829        -0.645888
 C         2.442102         0.975384        -0.802845
 O         1.867916        -0.243499        -1.291395
 H        -0.249194         0.505566         1.325644
 H        -0.489120         1.067177        -0.380868
 H        -0.406752        -0.648872         0.209696
 H         1.982842        -0.457506         2.196063
 H         1.414496        -1.890878         1.138256
 H         3.960686         0.324809         2.261683
 H         5.320018        -0.898222         1.840758
 H         5.885301         0.508774         0.109682
 H         4.460847         1.459990        -1.443876
 H         2.097908         1.948235        -1.095365
