19
Iteration:  2400charge 0 multiplicity 1
 C        -0.064093         0.247465         0.105554
 C         1.441655         0.116121         0.037623
 C         2.129694        -0.664256         1.320401
 O         3.278863        -1.431501         1.084114
 C         4.483731        -0.724661         1.183330
 C         4.762832         0.463315         0.277117
 C         3.857224         1.134838        -0.444780
 C         2.416587         0.964330        -0.689346
 O         1.958884        -0.293051        -1.304669
 H        -0.531417         1.157087         0.125023
 H        -0.455481        -0.413155        -0.619549
 H        -0.343524        -0.344144         1.065487
 H         2.455175         0.198116         1.958420
 H         1.369544        -1.274788         1.866282
 H         4.629222        -0.186090         2.220668
 H         5.367756        -1.498171         1.028492
 H         5.741468         1.054372         0.558141
 H         4.331952         2.051947        -0.877485
 H         2.239645         1.869926        -1.235876
