19
Iteration:   771charge 0 multiplicity 1
 C         0.079747         0.511888         0.130758
 C         1.562364         0.029471         0.157162
 C         2.012415        -1.002501         1.232744
 O         3.365122        -1.319599         0.906883
 C         4.320066        -0.437730         1.298141
 C         4.734658         0.547057         0.288781
 C         3.905442         1.084840        -0.584382
 C         2.458207         0.857066        -0.696307
 O         1.915706        -0.440507        -1.110051
 H        -0.045198         1.255539         0.934695
 H        -0.254875         0.950929        -0.934429
 H        -0.590774        -0.384080         0.295788
 H         1.907746        -0.646717         2.318241
 H         1.257699        -1.772625         1.093630
 H         4.067869         0.035286         2.237058
 H         5.229161        -0.991786         1.579120
 H         5.808939         0.734640         0.338263
 H         4.250934         1.724220        -1.253208
 H         1.949557         1.643221        -1.236423
