19
Iteration:   235
 C        -0.057020         0.254358         0.279741
 C         1.507799         0.095278         0.005040
 C         2.087172        -0.614218         1.221974
 O         3.294508        -1.294427         0.866341
 C         4.460015        -0.647092         1.357943
 C         4.812371         0.441034         0.337994
 C         3.916568         1.163784        -0.489583
 C         2.497722         0.903491        -0.774648
 O         1.819205        -0.476365        -1.217624
 H        -0.241766         1.108868         0.986308
 H        -0.534416         0.524529        -0.647827
 H        -0.429959        -0.727768         0.691338
 H         2.379911         0.207265         1.986954
 H         1.399351        -1.451296         1.618369
 H         4.289933        -0.269479         2.461613
 H         5.217607        -1.357436         1.337352
 H         5.911669         0.774775         0.262858
 H         4.469356         2.131820        -0.903522
 H         1.964048         1.699001        -1.399028
