19
Iteration:  1319
 C         0.153431         0.634452         0.113170
 C         1.579696        -0.065157         0.089852
 C         1.973741        -1.167302         1.245807
 O         3.366554        -1.434233         1.147172
 C         4.380660        -0.363907         1.364462
 C         4.712378         0.525189         0.188546
 C         3.818360         1.147530        -0.677780
 C         2.430798         0.871155        -0.644165
 O         1.944553        -0.367638        -1.206749
 H        -0.019569         0.941164         1.124403
 H         0.073889         1.503155        -0.482681
 H        -0.608548        -0.066028        -0.380446
 H         1.620802        -0.600294         2.079211
 H         1.442724        -2.119208         1.137527
 H         4.022096         0.250384         2.254343
 H         5.125677        -0.925656         1.782754
 H         5.749856         0.763944        -0.078207
 H         4.189054         1.783819        -1.590623
 H         1.788499         1.777180        -1.001119
