19
Iteration:  4578charge 0 multiplicity 1
 C         0.104619         0.346874         0.190593
 C         1.551035         0.007221         0.102110
 C         1.905370        -1.126038         1.037506
 O         3.352111        -1.483994         0.878051
 C         4.357508        -0.516592         1.299815
 C         4.720751         0.380742         0.191354
 C         3.882547         1.191444        -0.393608
 C         2.357472         1.118453        -0.440190
 O         2.103749        -0.096592        -1.210441
 H        -0.508632        -0.170501        -0.673143
 H        -0.484162         0.224195         1.101578
 H        -0.137501         1.486144         0.013534
 H         1.577886        -0.956623         2.127627
 H         1.274739        -1.963456         0.828041
 H         4.042719        -0.038682         2.311709
 H         5.283148        -1.262208         1.508221
 H         5.835189         0.702491         0.135268
 H         4.333311         1.907502        -1.118211
 H         1.892918         2.010258        -0.725413
