19
Iteration:  4463
 C         0.149808         0.570920         0.240176
 C         1.610309         0.053124         0.180417
 C         1.976986        -1.234855         0.924045
 O         3.369119        -1.543833         0.720413
 C         4.253264        -0.685620         1.270260
 C         4.718573         0.608469         0.428126
 C         3.816374         1.313757        -0.285357
 C         2.446312         0.990349        -0.514290
 O         1.969893        -0.215631        -1.249743
 H        -0.364400         0.031509         0.953716
 H         0.199752         1.654462         0.416013
 H        -0.277201         0.390989        -0.689574
 H         1.864451        -1.224832         2.053270
 H         1.489963        -2.261315         0.609431
 H         3.893800        -0.211598         2.211122
 H         5.116867        -1.214270         1.354179
 H         5.778271         0.905889         0.395888
 H         4.264171         2.182064        -0.861326
 H         1.898574         1.975087        -0.855493
