19
Iteration:  4436
 C        -0.053884         0.329933         0.200788
 C         1.521910         0.040454         0.063238
 C         2.008621        -1.098717         0.966241
 O         3.349674        -1.569902         0.810427
 C         4.377234        -0.698050         1.298817
 C         4.725354         0.464828         0.359929
 C         3.919544         1.207657        -0.339907
 C         2.412139         1.147985        -0.424763
 O         2.040677         0.000279        -1.291548
 H        -0.506826        -0.310315         1.049321
 H        -0.201078         1.380633         0.557134
 H        -0.565007         0.264306        -0.822743
 H         1.928203        -0.746896         2.018156
 H         1.441789        -1.978180         1.047430
 H         4.151002        -0.202495         2.321247
 H         5.364289        -1.324316         1.311449
 H         5.783410         0.754570         0.382475
 H         4.402372         1.962853        -0.921811
 H         1.974620         2.060428        -0.702276
