19
Iteration:  3300
 C         0.156022         0.567766         0.357949
 C         1.497467         0.011385         0.002780
 C         2.133852        -0.967330         1.031058
 O         3.388531        -1.438427         0.670821
 C         4.499060        -0.692538         1.282780
 C         4.619939         0.644695         0.608146
 C         3.792909         1.148740        -0.284317
 C         2.402783         0.940733        -0.713849
 O         1.829177        -0.365989        -1.271684
 H        -0.170673         1.423059        -0.387311
 H        -0.501514        -0.226761         0.115767
 H        -0.147670         0.943129         1.340375
 H         2.038534        -0.723674         2.169267
 H         1.367567        -1.848162         0.967479
 H         4.412627        -0.690010         2.306000
 H         5.445332        -1.320928         1.055347
 H         5.515039         1.120211         0.812860
 H         4.253851         2.123812        -0.750281
 H         2.022754         1.696300        -1.397393
