19
Iteration:   642charge 0 multiplicity 1
 C         0.031478         0.304012         0.153742
 C         1.523400         0.047790         0.084218
 C         1.979627        -0.759552         1.346830
 O         3.188748        -1.302241         0.880148
 C         4.392501        -0.569707         1.203072
 C         4.781308         0.496806         0.291750
 C         3.947543         1.202855        -0.545359
 C         2.488313         0.922416        -0.760607
 O         2.020717        -0.493685        -1.055854
 H        -0.305689         0.491541         1.129305
 H        -0.361165         1.117182        -0.549543
 H        -0.565443        -0.538071        -0.160147
 H         2.240957        -0.111435         2.189385
 H         1.276025        -1.517155         1.569954
 H         4.109791        -0.106450         2.182740
 H         5.255923        -1.348831         1.335700
 H         5.805556         0.880364         0.262237
 H         4.359420         1.924114        -1.095955
 H         2.049178         1.676198        -1.292297
