19
Iteration:  4163charge 0 multiplicity 1
 C         0.031636         0.301112         0.253372
 C         1.510811        -0.030185         0.093204
 C         2.013457        -1.064081         1.013475
 O         3.329135        -1.404122         0.878807
 C         4.356977        -0.593178         1.413790
 C         4.749929         0.403963         0.309676
 C         3.902376         1.149137        -0.453612
 C         2.460988         1.050162        -0.525837
 O         1.977088        -0.032414        -1.327338
 H        -0.592567         0.313537        -0.685104
 H        -0.429982        -0.315817         1.056283
 H        -0.021543         1.281732         0.648975
 H         1.905762        -0.649757         1.983530
 H         1.422754        -2.100460         0.921038
 H         4.177497        -0.157773         2.415588
 H         5.239212        -1.218034         1.446166
 H         5.751541         0.712439         0.270183
 H         4.393009         1.928139        -1.119582
 H         1.889043         2.065105        -0.972392
