19
Iteration:   950
 C         0.186149         0.398597         0.240531
 C         1.596216         0.055255         0.099180
 C         2.030645        -0.729445         1.252885
 O         3.270183        -1.435239         1.009862
 C         4.346621        -0.612766         1.255903
 C         4.576504         0.577054         0.365518
 C         3.854438         1.228934        -0.563916
 C         2.459327         0.859417        -0.843184
 O         1.985256        -0.493951        -1.219420
 H         0.034789         1.369488         0.893106
 H        -0.182158         0.630136        -0.747474
 H        -0.377252        -0.535833         0.618486
 H         2.243927        -0.101229         2.098558
 H         1.269936        -1.462818         1.429841
 H         4.166364        -0.259077         2.345090
 H         5.274350        -1.337135         1.183715
 H         5.649993         0.973093         0.434225
 H         4.299193         2.067879        -1.157699
 H         1.878999         1.660262        -1.385607
