19
Iteration:  1065
 C         0.061986         0.303734         0.121014
 C         1.593783         0.116370         0.088471
 C         2.007368        -0.683240         1.359378
 O         3.130691        -1.480820         1.168855
 C         4.333074        -0.675950         1.110670
 C         4.605840         0.492528         0.079895
 C         3.820585         1.342138        -0.546773
 C         2.454344         0.944026        -0.785810
 O         2.277830        -0.479569        -1.031199
 H        -0.278395         0.668355         1.032974
 H        -0.209261         1.088872        -0.630516
 H        -0.415710        -0.578082        -0.198974
 H         2.107832         0.026110         2.140076
 H         1.235167        -1.455263         1.518781
 H         4.560387        -0.119857         2.073152
 H         5.073416        -1.391389         0.920138
 H         5.613051         0.806460         0.214661
 H         4.349446         2.173863        -0.892470
 H         1.852801         1.535477        -1.448039
