19
Iteration:  1255charge 0 multiplicity 1
 C         0.004549         0.186026         0.385423
 C         1.537584         0.041677        -0.012919
 C         1.998939        -0.724102         1.080141
 O         3.298456        -1.312152         1.036591
 C         4.345549        -0.466598         1.470055
 C         4.795689         0.519935         0.338566
 C         3.983699         0.852791        -0.636620
 C         2.551725         0.906917        -0.696916
 O         1.849908        -0.209018        -1.388270
 H        -0.151089         0.648779         1.355823
 H        -0.654757         0.679278        -0.271983
 H        -0.369910        -0.841705         0.517052
 H         2.086621        -0.052289         1.946398
 H         1.343450        -1.662183         1.251786
 H         3.999330         0.085199         2.336717
 H         5.185697        -1.009659         1.783515
 H         5.845674         0.691079         0.193827
 H         4.416909         1.452363        -1.576268
 H         2.255916         2.023443        -1.008310
