19
Iteration:  1496
 C         0.018888         0.213748         0.155618
 C         1.492813         0.072461        -0.019895
 C         2.082259        -0.520848         1.270715
 O         3.306708        -1.339312         1.080915
 C         4.509967        -0.707794         1.240187
 C         4.726642         0.492478         0.340361
 C         3.858186         1.051695        -0.489483
 C         2.429385         0.942066        -0.745026
 O         1.904477        -0.389224        -1.246038
 H        -0.443766         0.563000         1.100801
 H        -0.275023         1.003991        -0.652688
 H        -0.435951        -0.755268        -0.007554
 H         2.266767         0.335097         2.009518
 H         1.308680        -1.192915         1.671879
 H         4.649395        -0.366539         2.290307
 H         5.186741        -1.603004         1.094251
 H         5.712586         0.932772         0.528510
 H         4.232905         1.910412        -0.984252
 H         1.945113         1.771514        -1.395157
