19
Iteration:  4498
 C         0.149102         0.555872         0.464646
 C         1.509791         0.027255        -0.014313
 C         2.037769        -1.162596         0.873516
 O         3.406416        -1.482407         0.668844
 C         4.305169        -0.673372         1.386652
 C         4.637858         0.667144         0.647707
 C         3.914196         1.163452        -0.352047
 C         2.477512         0.968417        -0.686363
 O         1.900657        -0.236429        -1.372196
 H        -0.203749        -0.127586         1.243484
 H         0.356811         1.463383         1.104640
 H        -0.621937         0.810703        -0.220257
 H         1.964141        -0.711403         1.904555
 H         1.319305        -2.027746         0.644918
 H         3.900919        -0.595280         2.424696
 H         5.153062        -1.310187         1.609917
 H         5.591947         1.099872         0.798391
 H         4.282250         1.989839        -0.919269
 H         1.916264         1.825296        -1.152178
