19
Iteration:  1053
 C         0.079611         0.340921         0.071193
 C         1.598571         0.010415         0.122856
 C         1.982427        -0.636053         1.380948
 O         3.149583        -1.496392         1.120954
 C         4.361517        -0.702920         1.049040
 C         4.583084         0.489648         0.165783
 C         3.852263         1.382802        -0.605232
 C         2.410087         0.987683        -0.816982
 O         2.300425        -0.474800        -0.955610
 H        -0.203667         0.534251         1.088597
 H        -0.244307         1.206016        -0.640861
 H        -0.517611        -0.511131        -0.111977
 H         2.066509        -0.183038         2.308268
 H         1.079946        -1.236682         1.585060
 H         4.358044        -0.299609         2.130205
 H         5.235257        -1.338009         1.129782
 H         5.649105         0.690115         0.235089
 H         4.008638         2.187317        -1.150781
 H         1.910551         1.484882        -1.577233
