19
Iteration:  2354charge 0 multiplicity 1
 C        -0.037841         0.503279         0.129787
 C         1.545899         0.032212         0.139441
 C         2.006885        -0.829484         1.293396
 O         3.304887        -1.398479         0.861821
 C         4.475150        -0.605338         1.169861
 C         4.735216         0.618099         0.362299
 C         3.870087         1.176350        -0.479558
 C         2.475903         0.842560        -0.733764
 O         1.960506        -0.506965        -1.122579
 H        -0.140305         1.531440         0.614430
 H        -0.396372         0.396420        -0.883584
 H        -0.591608        -0.190053         0.693514
 H         2.011770        -0.237888         2.270676
 H         1.307919        -1.683924         1.366590
 H         4.364304        -0.121611         2.247494
 H         5.400489        -1.253960         1.149038
 H         5.697970         0.960391         0.580822
 H         4.165408         2.053172        -1.050561
 H         2.025551         1.642996        -1.351756
