19
Iteration:  1406charge 0 multiplicity 1
 C         0.058471         0.443643         0.191681
 C         1.467585        -0.038062         0.025480
 C         2.005777        -0.766772         1.152721
 O         3.398984        -1.392502         1.081883
 C         4.455409        -0.538253         1.375450
 C         4.769758         0.584616         0.392281
 C         3.886337         0.977313        -0.577588
 C         2.426220         0.861635        -0.745197
 O         1.839085        -0.377028        -1.328908
 H         0.036095         1.399888         0.701406
 H        -0.559817         0.578889        -0.680169
 H        -0.598813        -0.213754         0.887909
 H         1.981507        -0.125011         2.102356
 H         1.481083        -1.606637         1.488587
 H         4.442780        -0.092746         2.380278
 H         5.435018        -0.995452         1.160724
 H         5.805157         0.924383         0.440865
 H         4.291540         1.835325        -1.179934
 H         1.985072         1.779466        -1.089302
