19
Iteration:  4470
 C         0.171959         0.620429         0.305296
 C         1.608758         0.063719         0.197497
 C         1.997159        -1.290704         0.907148
 O         3.351899        -1.526431         0.703739
 C         4.260415        -0.591573         1.234184
 C         4.705126         0.572044         0.462379
 C         3.839626         1.325642        -0.267865
 C         2.464601         0.947671        -0.554469
 O         1.943457        -0.260408        -1.298032
 H        -0.436150        -0.027892         1.044015
 H         0.290520         1.669796         0.503571
 H        -0.365559         0.362617        -0.705888
 H         2.000840        -1.040367         1.968886
 H         1.393229        -2.039195         0.433222
 H         3.786823        -0.295333         2.283659
 H         5.155991        -1.305972         1.509256
 H         5.716287         1.005495         0.768178
 H         4.242658         2.245576        -0.733493
 H         1.866769         1.717420        -0.939118
