19
Iteration:  3962charge 0 multiplicity 1
 C         0.016817         0.275958         0.166751
 C         1.563574         0.126964         0.120281
 C         2.037887        -1.010688         1.082805
 O         3.310759        -1.566474         1.070718
 C         4.407650        -0.721627         1.184654
 C         4.689929         0.439303         0.284438
 C         3.866726         1.247004        -0.423147
 C         2.364467         1.119134        -0.504697
 O         2.053577        -0.054229        -1.319223
 H        -0.325359         0.754041        -0.709373
 H        -0.454269        -0.651983         0.216874
 H        -0.376295         0.901226         0.983148
 H         1.810628        -0.827345         2.135574
 H         1.407028        -1.950893         0.943920
 H         4.410786        -0.232066         2.306255
 H         5.342249        -1.364770         1.020020
 H         5.772164         0.812395         0.141430
 H         4.186435         2.147097        -0.952668
 H         1.981779         2.107096        -0.995990
