19
Iteration:  2897
 C         0.031459         0.374555         0.185782
 C         1.437008         0.031784         0.052068
 C         2.216200        -0.652880         1.170542
 O         3.323162        -1.384959         0.639666
 C         4.494699        -0.824451         1.102466
 C         4.639591         0.552646         0.636881
 C         3.863200         1.189319        -0.205326
 C         2.388475         0.878853        -0.705938
 O         1.887811        -0.358101        -1.206183
 H        -0.195971         1.384826        -0.497658
 H        -0.610550        -0.451705        -0.395553
 H        -0.281370         0.504565         1.317864
 H         2.264450         0.165436         2.044795
 H         1.655679        -1.482443         1.706896
 H         4.661397        -0.905807         2.183580
 H         5.345736        -1.323535         0.748954
 H         5.680799         1.017518         0.892360
 H         4.213592         2.084977        -0.616557
 H         1.983131         1.764030        -1.124946
