19
Iteration:  4596
 C         0.010562         0.299103         0.079616
 C         1.511593         0.042086         0.127051
 C         2.012581        -1.098451         1.098466
 O         3.261785        -1.480345         0.873545
 C         4.290966        -0.553073         1.221133
 C         4.751617         0.405727         0.148682
 C         3.951398         1.289590        -0.431279
 C         2.476971         1.106738        -0.331030
 O         2.126447        -0.118522        -1.108637
 H        -0.403422        -0.209510        -0.742163
 H        -0.505078        -0.216750         0.892926
 H        -0.168378         1.349056         0.135166
 H         1.763881        -0.871413         2.119057
 H         1.282909        -1.980812         0.835903
 H         3.976568         0.033437         2.113148
 H         4.968258        -1.156176         1.710976
 H         5.724287         0.276337        -0.321058
 H         4.226826         1.992650        -1.164320
 H         1.811256         1.944624        -0.721875
