19
Iteration:   219
 C        -0.090041         0.285212         0.293177
 C         1.436298         0.102132         0.001855
 C         2.067067        -0.622757         1.251472
 O         3.253467        -1.383690         1.036087
 C         4.487591        -0.650793         1.174167
 C         4.784818         0.523467         0.385072
 C         3.945599         1.157721        -0.518891
 C         2.441186         0.917447        -0.783114
 O         1.996476        -0.434045        -1.229158
 H        -0.279749         0.888353         1.176465
 H        -0.831664         0.647870        -0.546016
 H        -0.573366        -0.668673         0.489439
 H         2.197608         0.111973         2.021416
 H         1.393138        -1.395829         1.515350
 H         4.547436        -0.349427         2.192081
 H         5.297296        -1.459158         0.971404
 H         5.813473         0.810638         0.408811
 H         4.376312         1.783978        -1.248813
 H         2.135380         1.635894        -1.491702
