19
Iteration:  1184
 C         0.118551         0.617339         0.231372
 C         1.511022        -0.019220         0.109944
 C         1.944793        -0.983414         1.237012
 O         3.242622        -1.454949         1.059091
 C         4.361939        -0.537542         1.241031
 C         4.685615         0.645389         0.306265
 C         3.855245         1.268153        -0.632935
 C         2.451720         0.800519        -0.821086
 O         2.119901        -0.507745        -1.155151
 H         0.042965         1.379972         1.082640
 H        -0.224488         1.231425        -0.745088
 H        -0.756792        -0.087867         0.315290
 H         1.907312        -0.604132         2.284128
 H         1.497441        -1.919519         1.081651
 H         4.322442        -0.153330         2.272398
 H         5.420055        -1.007008         1.175782
 H         5.757653         0.897039         0.440234
 H         4.219497         2.098100        -1.106160
 H         1.814322         1.532987        -1.277799
