19
Iteration:  3606
 C         0.100377         0.293590         0.210888
 C         1.590821         0.038335         0.013190
 C         2.053454        -1.018480         1.093434
 O         3.385622        -1.653838         1.107132
 C         4.445417        -0.668177         1.281027
 C         4.640128         0.379370         0.204286
 C         3.834621         1.262176        -0.395009
 C         2.344523         1.191735        -0.519192
 O         1.934446         0.014627        -1.365490
 H        -0.355483         0.669483        -0.776883
 H        -0.170941        -0.626504         0.437074
 H        -0.171320         1.083242         0.924831
 H         1.685109        -0.633687         2.012738
 H         1.401191        -1.797529         0.866479
 H         4.232206        -0.201324         2.320223
 H         5.315871        -1.302370         1.432804
 H         5.714991         0.606419        -0.012792
 H         4.265590         2.043880        -0.962810
 H         1.798367         2.117158        -0.728411
