19
Iteration:  3288
 C         0.042521         0.493662         0.288631
 C         1.500867         0.082198         0.124629
 C         2.093053        -0.952314         1.019615
 O         3.437817        -1.339216         0.644876
 C         4.488704        -0.711894         1.301376
 C         4.669215         0.585982         0.640284
 C         3.869060         1.110017        -0.349321
 C         2.416429         0.884237        -0.674773
 O         1.783564        -0.352614        -1.311461
 H        -0.047566         1.464904        -0.372514
 H        -0.706631        -0.244237        -0.006023
 H        -0.009870         0.743029         1.422261
 H         2.154084        -0.475413         2.083042
 H         1.514843        -1.929553         0.935387
 H         4.372106        -0.544595         2.327193
 H         5.399008        -1.364128         1.143313
 H         5.597772         1.092777         0.776337
 H         4.211277         2.097844        -0.838725
 H         1.956863         1.794421        -0.980124
