19
Iteration:  4868charge 0 multiplicity 1
 C         0.150909         0.493427         0.251291
 C         1.548183         0.003428         0.121122
 C         2.016680        -1.127865         0.899220
 O         3.389936        -1.471905         0.644881
 C         4.332845        -0.660146         1.328272
 C         4.661755         0.585480         0.570157
 C         3.848279         1.185836        -0.300019
 C         2.448136         0.992995        -0.502113
 O         1.914209        -0.173023        -1.309237
 H         0.318412         1.410658         0.827873
 H        -0.358980         0.616097        -0.791960
 H        -0.460840        -0.144675         0.943323
 H         1.989683        -0.883930         2.071292
 H         1.504885        -2.033621         0.681350
 H         3.937354        -0.441784         2.364148
 H         5.234902        -1.397301         1.286757
 H         5.696340         1.031248         0.733878
 H         4.160775         2.076314        -0.893927
 H         1.976204         1.880784        -0.976372
