19
Iteration:   190
 C         0.177537         0.381096         0.095410
 C         1.627124         0.018560         0.063777
 C         2.066834        -0.686183         1.404130
 O         3.247489        -1.406414         1.209161
 C         4.489832        -0.724831         1.086487
 C         4.565090         0.511074         0.262964
 C         3.803466         1.256731        -0.542885
 C         2.348172         0.946115        -0.744732
 O         1.976568        -0.462050        -1.226905
 H        -0.237191         0.763142         0.993729
 H        -0.066618         1.189490        -0.695797
 H        -0.425923        -0.457900        -0.193060
 H         2.105354         0.125901         2.224736
 H         1.363407        -1.543175         1.535152
 H         4.862556        -0.480662         2.169721
 H         5.115708        -1.425641         0.664636
 H         5.664470         0.811096         0.368679
 H         4.265933         2.272488        -0.899312
 H         1.773063         1.673700        -1.335039
