19
Iteration:  2906
 C        -0.058289         0.408078         0.200513
 C         1.484968         0.022195         0.036023
 C         2.200386        -0.699967         1.175477
 O         3.327569        -1.380728         0.680250
 C         4.531926        -0.826414         1.151194
 C         4.625609         0.534572         0.643312
 C         3.823058         1.206930        -0.276672
 C         2.467207         0.897435        -0.732022
 O         1.915289        -0.350045        -1.245218
 H        -0.392505         1.480978        -0.119480
 H        -0.757008        -0.438955        -0.169094
 H        -0.253466         0.362049         1.342449
 H         2.615746         0.044150         1.964746
 H         1.453610        -1.363138         1.589960
 H         4.661007        -0.915926         2.170037
 H         5.302165        -1.465292         0.659861
 H         5.574043         1.010813         0.975848
 H         4.075341         2.245147        -0.463093
 H         1.881390         1.686376        -1.255525
