19
Iteration:  3306charge 0 multiplicity 1
 C         0.140727         0.594975         0.347489
 C         1.533248         0.004973         0.014549
 C         2.102119        -0.995091         1.058537
 O         3.388795        -1.510397         0.710096
 C         4.471443        -0.693511         1.227707
 C         4.619711         0.652048         0.596314
 C         3.758115         1.218852        -0.270901
 C         2.437786         0.940717        -0.765895
 O         1.864931        -0.351694        -1.266796
 H        -0.182929         1.348880        -0.321900
 H        -0.605805        -0.301145         0.254419
 H         0.200403         1.010125         1.446110
 H         2.045509        -0.548940         2.025023
 H         1.489398        -1.841338         0.912020
 H         4.264703        -0.807668         2.417925
 H         5.340203        -1.240781         0.989289
 H         5.568125         1.274547         0.852227
 H         4.141567         2.069667        -0.705376
 H         1.866273         1.620831        -1.424130
