19
Iteration:   732charge 0 multiplicity 1
 C         0.021097         0.310338         0.373006
 C         1.508970         0.043284        -0.083702
 C         2.103625        -0.749710         1.184326
 O         3.327500        -1.364029         1.075652
 C         4.388631        -0.537351         1.396752
 C         4.669709         0.508420         0.411290
 C         3.926753         1.016060        -0.536558
 C         2.454172         0.889509        -0.872083
 O         1.876032        -0.339703        -1.419857
 H         0.206747         1.232769         0.943599
 H        -0.741459         0.535124        -0.317700
 H        -0.276074        -0.396001         1.118308
 H         2.134150        -0.012893         1.943553
 H         1.616992        -1.677863         1.459387
 H         4.364285        -0.069995         2.474622
 H         5.230453        -1.305478         1.304746
 H         5.656505         0.921830         0.590016
 H         4.508179         1.929965        -1.082997
 H         2.107536         1.801641        -1.371813
