19
Iteration:  1151charge 0 multiplicity 1
 C         0.132059         0.400051         0.229564
 C         1.522522         0.008305         0.018492
 C         2.118215        -0.657672         1.195084
 O         3.273029        -1.379096         0.974277
 C         4.407916        -0.596039         1.289039
 C         4.640214         0.550465         0.415919
 C         3.916864         1.127717        -0.497507
 C         2.392021         0.881564        -0.854597
 O         1.933497        -0.494374        -1.224112
 H         0.029947         1.097412         1.139408
 H        -0.401385         0.802948        -0.751173
 H        -0.359720        -0.554154         0.567701
 H         2.115452         0.005600         2.133686
 H         1.351354        -1.448728         1.404341
 H         4.258884        -0.300317         2.304851
 H         5.255160        -1.411792         1.400154
 H         5.645048         0.955797         0.596983
 H         4.217191         1.993952        -0.945845
 H         1.970383         1.726223        -1.368380
