19
Iteration:  2821charge 0 multiplicity 1
 C         0.136571         0.273266         0.216092
 C         1.657256        -0.016359         0.039128
 C         1.989412        -0.986540         1.169278
 O         3.244747        -1.556023         1.103611
 C         4.404773        -0.777938         1.067697
 C         4.578631         0.440810         0.256524
 C         3.828050         1.388882        -0.321403
 C         2.350048         1.125311        -0.542006
 O         2.095256        -0.076781        -1.336060
 H        -0.222208         0.439503        -0.881480
 H        -0.543322        -0.526350         0.593938
 H        -0.006849         1.251254         0.725925
 H         1.881458        -0.281234         2.032565
 H         1.330311        -1.901805         1.201930
 H         4.693949        -0.201449         2.054666
 H         5.215613        -1.405787         0.826562
 H         5.710788         0.710923         0.298548
 H         4.256566         2.196523        -0.822701
 H         1.852593         1.946293        -0.888476
