19
Iteration:   483charge 0 multiplicity 1
 C         0.040600         0.496172         0.261615
 C         1.482275        -0.011169         0.020730
 C         2.052016        -0.836165         1.122386
 O         3.361721        -1.250549         1.058253
 C         4.514537        -0.530898         1.313398
 C         4.760182         0.575029         0.428561
 C         3.853742         0.980434        -0.499350
 C         2.409170         0.798375        -0.755744
 O         1.839851        -0.412862        -1.340087
 H         0.091607         1.271367         1.065815
 H        -0.553613         0.827141        -0.689810
 H        -0.484685        -0.341268         0.722808
 H         1.836991        -0.325453         2.062799
 H         1.452733        -1.754872         1.320650
 H         4.619584        -0.258966         2.364162
 H         5.424369        -1.241403         1.102669
 H         5.827370         0.835521         0.272504
 H         4.254963         1.721401        -1.203147
 H         1.897651         1.690129        -1.167985
