19
Iteration:  2802
 C         0.077036         0.300045         0.159689
 C         1.554493         0.049975         0.024743
 C         2.029468        -0.957056         1.125669
 O         3.330213        -1.623872         1.096823
 C         4.439533        -0.731238         1.203476
 C         4.701383         0.455767         0.264010
 C         3.843677         1.276228        -0.364738
 C         2.355982         1.089564        -0.549373
 O         1.979202        -0.024870        -1.347132
 H        -0.401821         0.418322        -0.780612
 H        -0.379504        -0.530305         0.555546
 H        -0.055999         1.108597         0.776801
 H         1.930121        -0.466553         2.068702
 H         1.294739        -1.789994         1.102251
 H         4.512228        -0.346848         2.173275
 H         5.358670        -1.433075         1.126990
 H         5.786712         0.806516         0.204659
 H         4.161858         2.215616        -0.758900
 H         1.770228         2.071355        -0.783575
