19
Iteration:  3412charge 0 multiplicity 1
 C        -0.075540         0.186594         0.085002
 C         1.488187         0.070495         0.101417
 C         2.106859        -0.858507         1.192861
 O         3.253526        -1.342651         0.733086
 C         4.472095        -0.730559         1.206840
 C         4.786279         0.385879         0.338358
 C         3.909655         1.206266        -0.345987
 C         2.407873         1.042007        -0.387977
 O         1.968921        -0.106473        -1.231556
 H        -0.355552         0.262326        -0.976966
 H        -0.535339        -0.657558         0.618408
 H        -0.300058         1.020601         0.665876
 H         2.197675        -0.335123         2.178201
 H         1.367690        -1.718452         1.448831
 H         4.461074        -0.463793         2.373399
 H         5.389256        -1.514461         1.092001
 H         5.804773         0.672631         0.071460
 H         4.322417         1.796346        -1.134979
 H         1.887631         1.980634        -0.608957
