19
Iteration:  3184
 C         0.105245         0.307691         0.224470
 C         1.589178        -0.056378         0.044121
 C         2.022017        -1.116821         1.046350
 O         3.356811        -1.542477         1.049337
 C         4.358527        -0.490578         1.306467
 C         4.768035         0.390041         0.198298
 C         3.869659         1.152965        -0.453278
 C         2.391865         1.093087        -0.435557
 O         1.913918         0.072035        -1.363365
 H        -0.222761         0.925401        -0.663281
 H        -0.474022        -0.717620         0.240064
 H        -0.125791         0.929350         1.186364
 H         1.545544        -0.869122         2.141401
 H         1.501204        -2.011332         0.730852
 H         4.109681         0.128516         2.135319
 H         5.166838        -1.086630         1.613852
 H         5.805031         0.440721        -0.035922
 H         4.263754         1.866931        -1.180107
 H         1.795025         2.039438        -0.275034
