19
Iteration:   659
 C         0.066639         0.427918         0.119198
 C         1.527947         0.089377         0.153797
 C         1.961227        -0.754065         1.218582
 O         3.220200        -1.360713         0.954578
 C         4.380259        -0.543836         1.196751
 C         4.768743         0.539281         0.226172
 C         3.832993         1.221974        -0.511748
 C         2.447823         0.802860        -0.640383
 O         2.101578        -0.532506        -1.066495
 H        -0.285221         0.943315         1.108511
 H        -0.207442         1.104391        -0.661273
 H        -0.569086        -0.514766        -0.010336
 H         1.971906        -0.350558         2.296547
 H         1.422733        -1.777988         1.142225
 H         4.408584        -0.105317         2.200478
 H         5.149073        -1.264649         1.064491
 H         5.862795         0.670608         0.240118
 H         4.247581         2.105286        -1.246993
 H         1.970030         1.546485        -1.440581
