19
Iteration:  3752charge 0 multiplicity 1
 C         0.048535         0.310384         0.317761
 C         1.524490         0.055507         0.005281
 C         2.098856        -0.934560         1.085151
 O         3.372051        -1.507800         0.895278
 C         4.435214        -0.679618         1.331105
 C         4.629156         0.439534         0.364587
 C         3.830609         1.184759        -0.393433
 C         2.380728         1.075084        -0.649776
 O         1.983149        -0.125425        -1.356980
 H        -0.509326         1.313637        -0.083249
 H        -0.556287        -0.609589        -0.033801
 H         0.014791         0.416508         1.437443
 H         2.119677        -0.361334         2.012052
 H         1.343724        -1.750139         1.252669
 H         4.170566        -0.349427         2.327728
 H         5.300829        -1.375925         1.281542
 H         5.623209         0.812412         0.268553
 H         4.347535         2.081865        -0.842694
 H         2.039043         2.012961        -0.929423
