19
Iteration:  4164
 C         0.030057         0.297243         0.246019
 C         1.511319        -0.033811         0.098220
 C         2.015918        -1.065873         1.021834
 O         3.326513        -1.402616         0.869694
 C         4.353215        -0.586151         1.416983
 C         4.746585         0.398486         0.297646
 C         3.900965         1.158603        -0.450993
 C         2.462262         1.049106        -0.520132
 O         1.980745        -0.033387        -1.321302
 H        -0.603444         0.321520        -0.694048
 H        -0.410287        -0.292934         1.037103
 H        -0.024065         1.301917         0.623731
 H         1.891900        -0.666119         2.008138
 H         1.423997        -2.081040         0.925924
 H         4.202423        -0.173702         2.383993
 H         5.214435        -1.210359         1.471386
 H         5.804459         0.669301         0.257677
 H         4.389416         1.937765        -1.098110
 H         1.899217         2.036273        -0.967911
