19
Iteration:  1809charge 0 multiplicity 1
 C         0.111692         0.400030         0.222171
 C         1.581207         0.011599         0.058696
 C         1.968032        -0.920725         1.155062
 O         3.428669        -1.410458         1.192153
 C         4.399865        -0.379287         1.398993
 C         4.723711         0.390816         0.247948
 C         3.897775         1.051347        -0.620347
 C         2.430350         0.944291        -0.683468
 O         1.814941        -0.272023        -1.349065
 H        -0.164422         0.677301         1.166956
 H        -0.048852         1.164098        -0.572291
 H        -0.523218        -0.496431        -0.146641
 H         1.827162        -0.377701         2.090798
 H         1.408649        -1.922226         1.307842
 H         3.991059         0.325189         2.224646
 H         5.314858        -0.859155         1.562317
 H         5.832013         0.364379        -0.066042
 H         4.291802         1.614584        -1.442415
 H         1.769317         1.922935        -0.916583
