19
Iteration:  4187
 C         0.019604         0.348392         0.126667
 C         1.515941         0.035371         0.178992
 C         1.980585        -1.049800         1.065430
 O         3.320032        -1.521409         0.820056
 C         4.297739        -0.551068         1.228635
 C         4.840415         0.424039         0.213164
 C         3.914570         1.244826        -0.329577
 C         2.456597         1.098422        -0.375507
 O         2.021648        -0.180942        -1.193021
 H        -0.299972        -0.033287        -0.888261
 H        -0.466422        -0.169380         0.896561
 H        -0.329120         1.406580         0.141515
 H         1.982993        -0.684178         2.077871
 H         1.363458        -2.011481         0.937604
 H         3.802852         0.105305         1.889483
 H         5.108174        -0.944720         1.781975
 H         5.914127         0.532423        -0.205122
 H         4.289672         1.852941        -1.149687
 H         1.814761         2.053229        -0.761274
