19
Iteration:  4517
 C         0.166189         0.426150         0.520702
 C         1.541574         0.030197        -0.016369
 C         2.055348        -0.968312         0.928352
 O         3.423478        -1.453222         0.746572
 C         4.338106        -0.662136         1.421896
 C         4.575970         0.585980         0.665152
 C         3.896424         1.035442        -0.347863
 C         2.483487         0.930232        -0.742089
 O         1.810059        -0.110798        -1.507415
 H        -0.384900        -0.415425         0.786104
 H         0.348119         1.192481         1.288044
 H        -0.263569         0.787387        -0.373813
 H         1.959250        -0.654265         1.946078
 H         1.553300        -1.908917         0.501008
 H         4.095724        -0.532102         2.616724
 H         5.251967        -1.189636         1.363054
 H         5.575667         0.973155         0.816092
 H         4.469300         1.802835        -0.969636
 H         1.915139         1.913189        -0.932764
