19
Iteration:  3259charge 0 multiplicity 1
 C        -0.022653         0.305607         0.287286
 C         1.464715         0.038953         0.091981
 C         2.008274        -1.001076         1.100066
 O         3.343699        -1.412300         0.720871
 C         4.423470        -0.609699         1.269284
 C         4.807177         0.564948         0.473912
 C         3.998041         1.105252        -0.416491
 C         2.485137         1.027791        -0.535481
 O         1.837335        -0.197882        -1.313024
 H        -0.195221         1.235278        -0.224804
 H        -0.597597        -0.465701        -0.165166
 H        -0.200573         0.434601         1.275728
 H         2.063922        -0.444744         1.986696
 H         1.409788        -1.920811         1.190411
 H         4.178905        -0.129675         2.334595
 H         5.275626        -1.348235         1.400118
 H         5.842457         0.806053         0.479857
 H         4.384989         1.948568        -1.045364
 H         1.915316         1.939984        -0.971531
