19
Iteration:  4830charge 0 multiplicity 1
 C         0.034168         0.268598         0.181296
 C         1.469408         0.083818         0.097623
 C         1.978899        -1.129762         0.995527
 O         3.327681        -1.530705         0.842468
 C         4.388373        -0.670472         1.248836
 C         4.795452         0.411799         0.293965
 C         3.877312         1.252280        -0.274120
 C         2.475156         1.080246        -0.445393
 O         2.001051         0.030887        -1.274755
 H        -0.294967         1.092354         0.944470
 H        -0.266036         0.727443        -0.755842
 H        -0.526644        -0.696991         0.227471
 H         1.768299        -0.771212         2.010001
 H         1.307115        -2.043344         0.767546
 H         4.008873        -0.104002         2.168615
 H         5.295724        -1.130148         1.666217
 H         5.811900         0.690640         0.274787
 H         4.291862         2.113122        -0.774919
 H         2.069578         2.037505        -0.746027
