19
Iteration:  1403charge 0 multiplicity 1
 C         0.077551         0.414721         0.222025
 C         1.472316        -0.018546        -0.001759
 C         2.005087        -0.738611         1.160019
 O         3.397826        -1.390849         1.058892
 C         4.454445        -0.522727         1.403404
 C         4.757284         0.580966         0.411642
 C         3.875689         0.941689        -0.586059
 C         2.441002         0.846433        -0.732807
 O         1.821847        -0.362645        -1.347956
 H        -0.083972         1.393034         0.733119
 H        -0.496785         0.613197        -0.674082
 H        -0.546865        -0.238880         0.930303
 H         1.994146        -0.065149         2.059850
 H         1.467432        -1.648318         1.463298
 H         4.391523        -0.112939         2.388291
 H         5.541234        -1.055488         1.169714
 H         5.814619         1.000296         0.422398
 H         4.281317         1.854008        -1.196720
 H         2.064337         1.730668        -1.150645
