19
Iteration:  2540
 C         0.113990         0.387553         0.354766
 C         1.530647         0.051982        -0.011996
 C         2.063668        -0.770432         1.105501
 O         3.275731        -1.467476         0.930983
 C         4.512361        -0.648341         1.282492
 C         4.672854         0.583839         0.472096
 C         3.837100         1.188595        -0.388636
 C         2.432561         0.847338        -0.809216
 O         1.896379        -0.349693        -1.353998
 H        -0.697114        -0.564854         0.257472
 H         0.148487         0.803378         1.374587
 H        -0.369184         1.160022        -0.379368
 H         2.127202        -0.129929         2.007031
 H         1.386926        -1.587369         1.392394
 H         4.552277        -0.603631         2.477800
 H         5.351918        -1.251585         1.020082
 H         5.573458         1.145098         0.761593
 H         4.181286         2.121338        -0.916059
 H         1.975738         1.760865        -1.255451
