19
Iteration:  3466charge 0 multiplicity 1
 C         0.185581         0.460130         0.320237
 C         1.595221         0.042962         0.035019
 C         2.041762        -1.021524         1.071919
 O         3.328174        -1.605270         0.960944
 C         4.423791        -0.711358         1.121786
 C         4.593007         0.613083         0.452238
 C         3.801873         1.296217        -0.328247
 C         2.443431         1.013780        -0.698364
 O         1.910465        -0.258943        -1.329003
 H        -0.050837         1.418977        -0.287702
 H        -0.534708        -0.413067         0.050796
 H         0.024450         0.918252         1.314445
 H         1.953401        -0.568256         2.016899
 H         1.327482        -1.874856         1.094698
 H         4.466489        -0.401150         2.196217
 H         5.335952        -1.314545         0.807281
 H         5.566442         1.088807         0.662274
 H         4.098018         2.284953        -0.588943
 H         1.923855         1.832319        -1.035769
