19
Iteration:  2359
 C        -0.006984         0.475945         0.121112
 C         1.493152         0.063470         0.110080
 C         2.027070        -0.808181         1.251114
 O         3.290423        -1.342888         0.857584
 C         4.482136        -0.605413         1.173232
 C         4.748185         0.563998         0.370296
 C         3.831399         1.151079        -0.455592
 C         2.489801         0.902814        -0.657196
 O         1.973168        -0.526950        -1.115507
 H        -0.173592         1.478205         0.418432
 H        -0.318351         0.334052        -0.934677
 H        -0.502430        -0.321588         0.866827
 H         2.036621        -0.201407         2.127349
 H         1.358369        -1.652355         1.478878
 H         4.406925        -0.286239         2.189625
 H         5.326212        -1.360450         1.114099
 H         5.881223         1.020469         0.466690
 H         4.071464         1.952697        -1.187125
 H         1.865242         1.496491        -1.324748
