19
Iteration:  2703charge 0 multiplicity 1
 C         0.200533         0.624038         0.426773
 C         1.603400         0.027954         0.036969
 C         2.082807        -1.200164         0.929609
 O         3.427577        -1.556112         0.944945
 C         4.327750        -0.572667         1.423018
 C         4.631978         0.534933         0.449734
 C         3.806689         1.218950        -0.463765
 C         2.341413         0.938721        -0.757673
 O         1.885462        -0.219522        -1.405188
 H         0.215530         1.732900         0.469384
 H        -0.491183         0.287116        -0.260264
 H         0.021234         0.291862         1.364909
 H         1.723117        -0.958226         1.978982
 H         1.559377        -2.106302         0.536471
 H         4.021659        -0.353000         2.514355
 H         5.383649        -1.132477         1.534689
 H         5.582810         1.098612         0.640265
 H         4.105667         2.166996        -0.890655
 H         1.881291         1.986012        -1.029694
