19
Iteration:  4843
 C        -0.105087         0.409619         0.182150
 C         1.504778         0.011849         0.135336
 C         2.024027        -1.139347         0.979700
 O         3.369970        -1.560583         0.755246
 C         4.365380        -0.640556         1.308777
 C         4.806686         0.511383         0.384564
 C         3.944667         1.256163        -0.288022
 C         2.396365         1.084036        -0.481728
 O         2.043195        -0.057928        -1.271174
 H        -0.173538         1.255241         0.987621
 H        -0.471791         0.738506        -0.863439
 H        -0.753521        -0.381523         0.579907
 H         1.863336        -1.012699         2.093572
 H         1.463321        -2.042293         0.643498
 H         3.976698        -0.245883         2.305518
 H         5.154090        -1.445085         1.413137
 H         5.860915         0.620260         0.250396
 H         4.302239         2.029537        -0.984728
 H         1.880262         1.940174        -0.781729
