19
Iteration:  2038charge 0 multiplicity 1
 C        -0.020022         0.192995         0.135439
 C         1.548052         0.006460        -0.003399
 C         2.122655        -0.606773         1.277823
 O         3.306873        -1.445064         1.188759
 C         4.507361        -0.612154         1.340035
 C         4.685742         0.414869         0.285131
 C         3.802516         1.009537        -0.554455
 C         2.337452         1.018240        -0.656725
 O         1.974793        -0.156705        -1.414146
 H        -0.138900         0.588852         1.104388
 H        -0.429482         0.985013        -0.509136
 H        -0.539312        -0.896253         0.350889
 H         2.151223         0.182623         2.037391
 H         1.491824        -1.432827         1.618684
 H         4.786651        -0.318140         2.412098
 H         5.289208        -1.326862         1.017368
 H         5.775867         0.707295         0.156544
 H         4.364110         1.657604        -1.295703
 H         1.878794         1.876979        -1.130799
