19
Iteration:  4303
 C         0.118189         0.520195         0.314675
 C         1.524154         0.042135         0.030835
 C         2.061599        -0.974094         1.027246
 O         3.354687        -1.484958         0.627374
 C         4.389569        -0.765011         1.200218
 C         4.563562         0.574642         0.665458
 C         3.865780         1.248911        -0.262705
 C         2.457409         0.986499        -0.667476
 O         1.966680        -0.313248        -1.257447
 H        -0.452798        -0.141341         1.037730
 H         0.188965         1.658380         0.543962
 H        -0.566982         0.365977        -0.498646
 H         2.152624        -0.443196         2.023187
 H         1.452072        -1.824178         0.886106
 H         4.466890        -0.849207         2.247787
 H         5.348928        -1.340207         0.821838
 H         5.312485         1.189087         1.075959
 H         4.174749         2.277711        -0.606343
 H         1.964495         1.745750        -1.118273
