19
Iteration:  1178
 C         0.123782         0.609837         0.241490
 C         1.505490        -0.008715         0.135789
 C         1.935464        -0.947645         1.235959
 O         3.231110        -1.460483         1.024890
 C         4.361806        -0.514286         1.241570
 C         4.676824         0.639102         0.321938
 C         3.886331         1.294865        -0.601963
 C         2.446509         0.767280        -0.827153
 O         2.126073        -0.521532        -1.175169
 H         0.066028         1.247556         1.079692
 H        -0.261912         1.069168        -0.579092
 H        -0.567377        -0.231632         0.407668
 H         1.964388        -0.423954         2.216490
 H         1.263863        -1.936310         1.190885
 H         4.370328        -0.248777         2.335861
 H         5.235631        -1.117221         1.174607
 H         5.731079         0.906624         0.408455
 H         4.281212         2.226328        -1.306984
 H         1.914643         1.596139        -1.449808
