19
Iteration:  2531charge 0 multiplicity 1
 C         0.064753         0.421355         0.325776
 C         1.488084         0.062618         0.032699
 C         2.090225        -0.767872         1.144902
 O         3.336159        -1.463711         0.897815
 C         4.430510        -0.675564         1.216433
 C         4.699305         0.651955         0.526561
 C         3.856201         1.182023        -0.368720
 C         2.442769         0.828217        -0.776832
 O         1.882462        -0.395236        -1.367856
 H        -0.454925        -0.580009         0.039178
 H        -0.164801         0.616476         1.396941
 H        -0.272407         1.366806        -0.306327
 H         2.306846        -0.027699         1.968799
 H         1.351882        -1.497258         1.516244
 H         4.511379        -0.532851         2.395309
 H         5.227930        -1.395047         0.958238
 H         5.725613         1.158746         0.691117
 H         4.244071         2.009902        -0.983125
 H         2.105440         1.656263        -1.331544
