19
Iteration:   516charge 0 multiplicity 1
 C        -0.028929         0.455781         0.107820
 C         1.491677         0.064026         0.186859
 C         2.114616        -0.860340         1.282588
 O         3.328172        -1.357827         0.804544
 C         4.377034        -0.539706         1.262198
 C         4.796545         0.531592         0.334777
 C         3.926765         1.102723        -0.570439
 C         2.437604         0.817610        -0.725838
 O         1.921349        -0.437582        -1.081404
 H        -0.308380         1.438576         0.595227
 H        -0.402357         0.655605        -0.949897
 H        -0.713983        -0.300057         0.535095
 H         2.324060        -0.306783         2.189186
 H         1.407806        -1.717662         1.449174
 H         3.935056         0.002287         2.138715
 H         5.242382        -1.119908         1.741808
 H         5.804343         0.926253         0.495817
 H         4.333271         2.041848        -1.034766
 H         1.950424         1.708178        -1.226395
