19
Iteration:  1803charge 0 multiplicity 1
 C         0.146230         0.333099         0.232136
 C         1.585487         0.011862         0.041928
 C         2.009017        -0.923045         1.136557
 O         3.381575        -1.415587         1.177459
 C         4.385275        -0.352278         1.461080
 C         4.745555         0.411439         0.223941
 C         3.934160         1.024528        -0.598571
 C         2.443878         0.948555        -0.703129
 O         1.736527        -0.255271        -1.374920
 H        -0.236496         0.581230         1.341210
 H         0.007474         1.233148        -0.366823
 H        -0.450875        -0.502104         0.020811
 H         1.902355        -0.223715         2.020674
 H         1.308502        -1.717193         1.142288
 H         4.189069         0.379593         2.226675
 H         5.282216        -0.998514         1.835174
 H         5.767488         0.546283         0.001318
 H         4.266125         1.645515        -1.496344
 H         2.022606         1.807488        -1.050139
