19
Iteration:  1911charge 0 multiplicity 1
 C         0.074994         0.447453         0.275088
 C         1.488846        -0.011756        -0.044570
 C         2.092146        -0.632373         1.187222
 O         3.341287        -1.407449         1.034947
 C         4.585731        -0.637692         1.317245
 C         4.650985         0.590905         0.558380
 C         3.830282         1.079584        -0.444173
 C         2.377710         0.833513        -0.899124
 O         1.823869        -0.452551        -1.371896
 H        -0.046486         1.420542         0.928146
 H        -0.390653         0.545554        -0.690909
 H        -0.449447        -0.379117         0.623568
 H         2.246508         0.101495         2.008840
 H         1.485839        -1.386818         1.683386
 H         4.881905        -0.416570         2.399506
 H         5.479923        -1.228473         0.965789
 H         5.599895         1.014560         0.585097
 H         4.459187         1.828714        -1.039308
 H         1.819295         1.686582        -1.435534
