19
Iteration:  1806
 C         0.130514         0.366820         0.227491
 C         1.587238         0.014192         0.052218
 C         1.979636        -0.921252         1.140825
 O         3.408715        -1.415065         1.184525
 C         4.393189        -0.358828         1.430538
 C         4.734173         0.397069         0.241905
 C         3.921806         1.040285        -0.608888
 C         2.440250         0.946927        -0.694684
 O         1.772101        -0.265395        -1.363866
 H        -0.210740         0.612853         1.249215
 H         0.013757         1.194427        -0.473926
 H        -0.496342        -0.513754        -0.054478
 H         1.871698        -0.273079         2.070937
 H         1.345047        -1.840307         1.235931
 H         4.095828         0.357902         2.197005
 H         5.320292        -0.941898         1.676471
 H         5.771422         0.446481        -0.040828
 H         4.232523         1.611867        -1.440234
 H         1.867777         1.879623        -0.978818
