19
Iteration:   420
 C         0.155939         0.464910         0.237238
 C         1.578050         0.006344         0.086489
 C         2.016328        -0.909499         1.268057
 O         3.329379        -1.423430         1.052815
 C         4.331491        -0.439029         1.352402
 C         4.719994         0.498088         0.207197
 C         3.840585         1.096846        -0.688483
 C         2.383237         0.903811        -0.741170
 O         1.981426        -0.409606        -1.235387
 H        -0.083153         0.839130         1.287808
 H        -0.266817         1.273307        -0.312133
 H        -0.489920        -0.437095         0.096452
 H         1.929718        -0.322427         2.281695
 H         1.316875        -1.726602         1.346041
 H         4.088058         0.197910         2.296667
 H         5.233301        -1.077285         1.705459
 H         5.739008         0.797205         0.100691
 H         4.355364         1.990160        -1.390486
 H         1.846131         1.798058        -1.113185
