19
Iteration:  2118
 C         0.188741         0.625873         0.244867
 C         1.500227        -0.046954         0.118795
 C         2.031299        -1.008999         1.153511
 O         3.362548        -1.323211         0.811413
 C         4.350576        -0.458379         1.317263
 C         4.714428         0.650918         0.448498
 C         3.896684         1.054850        -0.570090
 C         2.474407         0.827093        -0.667598
 O         1.854152        -0.520276        -1.209909
 H         0.008908         1.208784         1.104308
 H        -0.179974         1.023801        -0.683293
 H        -0.737524        -0.100222         0.362285
 H         1.982113        -0.423228         2.064562
 H         1.501629        -1.966304         1.324569
 H         3.930095         0.015991         2.170066
 H         5.139519        -1.059595         1.621681
 H         5.662795         1.075923         0.464227
 H         4.272319         1.723814        -1.320258
 H         2.024540         1.726025        -1.236759
