19
Iteration:  2490
 C         0.000711         0.457015         0.077774
 C         1.531699         0.101824         0.140092
 C         2.092453        -0.764985         1.253246
 O         3.276117        -1.352641         0.843467
 C         4.543128        -0.728323         1.095461
 C         4.710792         0.580654         0.412895
 C         3.778624         1.150514        -0.355367
 C         2.363682         0.862353        -0.692473
 O         2.010755        -0.450716        -1.114140
 H        -0.218372         0.092402        -0.827699
 H        -0.672104         0.003023         0.800566
 H        -0.274872         1.521546         0.055903
 H         2.199794        -0.226340         2.224790
 H         1.476101        -1.660568         1.441717
 H         4.524651        -0.493268         2.153336
 H         5.395238        -1.516349         1.046033
 H         5.799814         0.946398         0.387970
 H         3.974836         2.108970        -0.777663
 H         1.897418         1.637598        -1.308669
