19
Iteration:   977
 C        -0.042810         0.334820         0.232430
 C         1.422218         0.035127        -0.015326
 C         2.144979        -0.545373         1.205286
 O         3.351665        -1.362193         1.069723
 C         4.572666        -0.681224         1.295361
 C         4.696250         0.498364         0.523937
 C         3.827483         1.065292        -0.470952
 C         2.425869         0.841592        -0.832733
 O         1.901630        -0.412856        -1.409380
 H        -0.046252         1.101825         0.902666
 H        -0.639307         0.686101        -0.643580
 H        -0.487947        -0.514882         0.626941
 H         2.513026         0.253904         1.904926
 H         1.362368        -1.188720         1.768978
 H         4.433333        -0.397196         2.364279
 H         5.308295        -1.388335         1.137091
 H         5.593094         1.105285         0.452634
 H         4.237242         1.920937        -0.954410
 H         2.056979         1.701368        -1.344196
