19
Iteration:  2312charge 0 multiplicity 1
 C         0.246873         0.504601         0.333561
 C         1.559040         0.008038        -0.014563
 C         2.060993        -0.815201         1.155468
 O         3.369940        -1.445409         1.095503
 C         4.433867        -0.511920         1.353076
 C         4.539239         0.581732         0.407971
 C         3.810647         1.084430        -0.522832
 C         2.385283         0.870008        -0.846579
 O         1.889582        -0.437364        -1.381500
 H         0.341469         0.902991         1.352125
 H        -0.039323         1.308602        -0.298892
 H        -0.552278        -0.286219         0.355041
 H         1.897254        -0.353755         2.102177
 H         1.396828        -1.675239         1.118660
 H         4.337522        -0.191269         2.326910
 H         5.384296        -1.165727         1.342166
 H         5.544804         1.022975         0.244597
 H         4.333637         1.742523        -1.204234
 H         1.715424         1.622784        -1.118215
