19
Iteration:  3616charge 0 multiplicity 1
 C         0.074555         0.267775         0.255115
 C         1.541150         0.072880        -0.008116
 C         2.048612        -1.041817         1.054463
 O         3.357285        -1.608573         1.069418
 C         4.393551        -0.691825         1.317696
 C         4.664048         0.431498         0.277565
 C         3.848916         1.241610        -0.481209
 C         2.376308         1.192493        -0.514438
 O         1.983686         0.007405        -1.350221
 H        -0.469771         0.514196        -0.721659
 H        -0.519383        -0.573180         0.556801
 H        -0.023409         0.950232         1.114232
 H         1.965337        -0.654664         2.012887
 H         1.494688        -1.903613         0.947920
 H         4.404624        -0.208307         2.331741
 H         5.373615        -1.237004         1.176540
 H         5.759551         0.494844         0.138244
 H         4.372015         1.932329        -1.061210
 H         1.767685         2.110786        -0.774356
