19
Iteration:  1921charge 0 multiplicity 1
 C         0.134742         0.452270         0.189755
 C         1.527552        -0.010187        -0.027772
 C         2.146283        -0.695039         1.229343
 O         3.320697        -1.377549         1.091277
 C         4.579564        -0.699741         1.244232
 C         4.658066         0.649692         0.511173
 C         3.800349         1.103011        -0.441344
 C         2.392140         0.786526        -0.900884
 O         1.792964        -0.448923        -1.338802
 H         0.031746         1.287472         0.982847
 H        -0.355659         0.849314        -0.680031
 H        -0.385192        -0.365340         0.684941
 H         2.246286         0.201710         1.918488
 H         1.318930        -1.405481         1.576794
 H         4.544809        -0.515550         2.320989
 H         5.351306        -1.444857         1.102231
 H         5.560913         1.139654         0.757844
 H         4.032461         2.163370        -0.873300
 H         1.913329         1.734210        -1.447113
