19
Iteration:  1329
 C         0.182163         0.583405         0.191377
 C         1.509281        -0.084060         0.127517
 C         1.960924        -1.087994         1.217587
 O         3.299782        -1.415920         1.094284
 C         4.386942        -0.353115         1.407732
 C         4.684380         0.562190         0.200729
 C         3.886484         1.114044        -0.668088
 C         2.440043         0.847056        -0.700183
 O         1.967760        -0.381463        -1.259599
 H        -0.166020         0.926113         1.145788
 H         0.262717         1.427509        -0.420822
 H        -0.744056        -0.114601         0.025643
 H         1.802018        -0.747929         2.304739
 H         1.515730        -2.043101         1.030191
 H         4.090807         0.370223         2.280665
 H         5.268090        -0.943645         1.637113
 H         5.787911         0.722204         0.034673
 H         4.256869         1.960106        -1.395007
 H         1.988164         1.685552        -1.272617
