19
Iteration:  2443charge 0 multiplicity 1
 C         0.094099         0.268400         0.140009
 C         1.597843         0.083650        -0.001276
 C         2.042862        -0.687233         1.346303
 O         3.240009        -1.482976         1.172589
 C         4.436153        -0.715558         1.098363
 C         4.630701         0.474838         0.288399
 C         3.784550         1.192328        -0.461022
 C         2.348521         0.991718        -0.707153
 O         2.099368        -0.278927        -1.299826
 H        -0.388659         0.958935        -0.515716
 H        -0.485321        -0.625339         0.141622
 H        -0.146882         0.699487         1.164298
 H         2.155819        -0.067880         2.285785
 H         1.347557        -1.528058         1.493894
 H         4.855224        -0.527710         2.094909
 H         5.210535        -1.400030         0.638692
 H         5.651009         0.915188         0.341434
 H         4.263940         2.109679        -0.893500
 H         1.834914         1.827771        -1.115017
