19
Iteration:  3034charge 0 multiplicity 1
 C        -0.053659         0.261318         0.317667
 C         1.522929         0.045450         0.081268
 C         2.039871        -0.993328         1.060958
 O         3.332267        -1.439712         0.756675
 C         4.354000        -0.633347         1.348942
 C         4.774057         0.513019         0.411753
 C         3.980786         1.116302        -0.476580
 C         2.458770         1.025528        -0.576177
 O         1.934750        -0.060930        -1.325972
 H        -0.604574         0.564529        -0.475490
 H        -0.515063        -0.591584         0.699588
 H        -0.116623         1.037473         1.040599
 H         2.027588        -0.650414         2.184667
 H         1.360959        -1.929242         1.062370
 H         4.042844        -0.357169         2.266590
 H         5.242750        -1.295216         1.511778
 H         5.781616         0.817377         0.586269
 H         4.512111         1.795027        -1.176646
 H         2.022756         2.079674        -0.577870
