19
Iteration:  4776charge 0 multiplicity 1
 C         0.000954         0.234646         0.168853
 C         1.542219         0.107521         0.022812
 C         2.126293        -0.983659         1.049457
 O         3.349402        -1.594187         0.951512
 C         4.434006        -0.746341         1.305944
 C         4.698219         0.393955         0.390803
 C         3.845129         1.177102        -0.333310
 C         2.370186         1.179285        -0.533443
 O         1.978014         0.056936        -1.408076
 H        -0.425242        -0.199013         1.140381
 H        -0.365237         1.245707         0.299182
 H        -0.608192        -0.157123        -0.672981
 H         2.053113        -0.372780         2.023093
 H         1.389711        -1.816290         0.946045
 H         4.208449        -0.446471         2.353418
 H         5.307641        -1.416110         1.236306
 H         5.700723         0.719336         0.509112
 H         4.348501         2.067999        -0.696070
 H         1.898103         2.097796        -0.653627
