19
Iteration:  2006charge 0 multiplicity 1
 C        -0.022400         0.190912         0.083945
 C         1.515724         0.085717         0.091947
 C         2.068357        -0.611626         1.318003
 O         3.253366        -1.440192         1.103473
 C         4.503523        -0.625232         1.244180
 C         4.810204         0.417148         0.180445
 C         3.916650         1.167494        -0.432938
 C         2.405395         0.977615        -0.720485
 O         1.888162        -0.310257        -1.237609
 H        -0.343641         0.553862         0.978593
 H        -0.392022         0.815549        -0.748275
 H        -0.393474        -0.902522        -0.316676
 H         2.073537         0.101244         2.128436
 H         1.311040        -1.410977         1.641146
 H         4.681572        -0.142761         2.340686
 H         5.320822        -1.328939         1.150532
 H         5.883151         0.714164         0.227643
 H         4.272309         2.075280        -1.040685
 H         1.894747         1.778203        -1.348023
