19
Iteration:  4839
 C        -0.107906         0.381649         0.165058
 C         1.503324         0.034723         0.146624
 C         2.021250        -1.137529         0.980292
 O         3.348999        -1.551969         0.781616
 C         4.361206        -0.659105         1.292805
 C         4.819349         0.482556         0.358004
 C         3.938308         1.259866        -0.275961
 C         2.400396         1.060651        -0.484362
 O         2.042488        -0.020644        -1.272080
 H        -0.123835         1.093597         0.959165
 H        -0.322579         0.722585        -0.786401
 H        -0.690572        -0.450846         0.583425
 H         1.828676        -1.050107         2.008227
 H         1.397675        -2.073815         0.764468
 H         4.031152        -0.248059         2.248538
 H         5.260068        -1.236793         1.528630
 H         5.889014         0.678261         0.212674
 H         4.207119         2.050602        -0.955255
 H         1.979986         2.080393        -0.867302
