19
Iteration:  1014
 C         0.031886         0.288695         0.028428
 C         1.482251         0.095831         0.033618
 C         2.069937        -0.577364         1.347497
 O         3.284886        -1.347241         1.106337
 C         4.526561        -0.753527         1.163346
 C         4.736890         0.560132         0.370965
 C         3.854098         1.158601        -0.472011
 C         2.408266         0.853819        -0.761707
 O         1.902155        -0.457556        -1.208205
 H        -0.292165         0.849078         0.979857
 H        -0.186806         0.943410        -0.782228
 H        -0.554266        -0.685501        -0.095628
 H         2.142272         0.295790         2.081980
 H         1.440485        -1.407647         1.714414
 H         4.778418        -0.380521         2.126369
 H         5.301573        -1.526948         0.893737
 H         5.769736         0.887824         0.493595
 H         4.307029         2.135716        -0.917143
 H         1.922718         1.716704        -1.338849
