19
Iteration:  1955
 C         0.071140         0.524531         0.131160
 C         1.546549         0.045665         0.070756
 C         2.082422        -0.766716         1.270142
 O         3.269776        -1.436787         1.036742
 C         4.448308        -0.727295         1.145659
 C         4.623206         0.674079         0.399281
 C         3.761501         1.247902        -0.488496
 C         2.389129         0.839773        -0.826052
 O         2.093068        -0.557306        -1.127020
 H         0.080277         1.048290         1.201239
 H        -0.272905         1.190627        -0.646325
 H        -0.598658        -0.266706         0.104454
 H         2.112211         0.006645         2.129264
 H         1.327825        -1.523592         1.618478
 H         4.560824        -0.389838         2.191604
 H         5.271740        -1.413757         0.904775
 H         5.591855         0.989578         0.240063
 H         4.143320         2.079378        -1.141714
 H         1.857781         1.588785        -1.538141
