19
Iteration:   776
 C         0.076716         0.564610         0.107991
 C         1.548263         0.007571         0.134926
 C         2.015002        -1.030881         1.265842
 O         3.370489        -1.324111         0.914893
 C         4.335742        -0.423360         1.296635
 C         4.698855         0.519524         0.269546
 C         3.855626         1.095747        -0.624589
 C         2.463870         0.836041        -0.640339
 O         1.929800        -0.434932        -1.097037
 H        -0.165162         1.302082         0.889625
 H         0.003889         0.971949        -0.865796
 H        -0.550194        -0.319157         0.115628
 H         1.913625        -0.643684         2.296622
 H         1.462283        -2.000035         1.073554
 H         4.035365         0.112572         2.252581
 H         5.284499        -1.012426         1.571905
 H         5.763866         0.769970         0.334535
 H         4.509042         1.899881        -1.305157
 H         1.954222         1.698933        -1.123277
