19
Iteration:   835
 C         0.126334         0.227145         0.379388
 C         1.559893         0.081297         0.009015
 C         2.023990        -0.766596         1.135735
 O         3.317853        -1.369944         1.133289
 C         4.354408        -0.472747         1.473777
 C         4.768993         0.410339         0.316122
 C         3.919904         1.009287        -0.662762
 C         2.456498         0.932337        -0.873054
 O         1.848719        -0.240694        -1.354272
 H        -0.002434         0.412302         1.415457
 H        -0.423070         1.089945        -0.092579
 H        -0.432957        -0.664424         0.129009
 H         1.737838        -0.299830         2.042688
 H         1.551156        -1.779302         1.109487
 H         4.143163         0.164122         2.435581
 H         5.160133        -1.115190         1.657710
 H         5.789114         0.781374         0.135250
 H         4.339213         1.744484        -1.415474
 H         1.898601         1.856745        -1.181588
