19
Iteration:  3255
 C         0.000008         0.272676         0.263461
 C         1.506690         0.047352         0.083072
 C         2.002744        -0.987093         1.070183
 O         3.347452        -1.419711         0.761000
 C         4.400771        -0.606266         1.273488
 C         4.809959         0.538208         0.432805
 C         3.977479         1.135074        -0.434089
 C         2.457249         1.042240        -0.518506
 O         1.856140        -0.186699        -1.299966
 H        -0.294438         1.302168        -0.151732
 H        -0.632774        -0.521874        -0.121508
 H        -0.223400         0.478442         1.361562
 H         1.934829        -0.451881         2.131193
 H         1.337258        -1.913029         1.190253
 H         4.128137        -0.278840         2.241810
 H         5.279671        -1.316511         1.445906
 H         5.883682         0.727337         0.415001
 H         4.482086         1.947749        -1.054207
 H         1.934884         1.897777        -0.848673
