19
Iteration:  4198
 C        -0.005797         0.328904         0.079280
 C         1.537079         0.087513         0.175624
 C         2.035125        -1.077861         1.052629
 O         3.306101        -1.607448         0.834170
 C         4.273608        -0.524943         1.213608
 C         4.815620         0.458282         0.142074
 C         3.912269         1.258519        -0.401292
 C         2.452025         1.074194        -0.336541
 O         2.052708        -0.144737        -1.080406
 H        -0.395472        -0.201314        -0.841692
 H        -0.600631         0.019353         0.879424
 H        -0.096933         1.439182        -0.019001
 H         1.930477        -0.732474         2.057436
 H         1.201511        -1.868070         1.031535
 H         3.805787         0.063468         1.980026
 H         4.980460        -1.151447         1.693865
 H         5.967860         0.631419         0.155258
 H         4.194673         2.056683        -1.076357
 H         1.986710         1.993125        -0.977681
