19
Iteration:  4924charge 0 multiplicity 1
 C         0.217538         0.473088         0.502382
 C         1.585818         0.077225        -0.027901
 C         2.039472        -1.037444         0.888363
 O         3.400319        -1.514676         0.759853
 C         4.429658        -0.728328         1.339973
 C         4.529790         0.618631         0.709427
 C         3.804331         1.140917        -0.275115
 C         2.389026         0.996711        -0.760748
 O         1.919790        -0.174030        -1.485980
 H         0.180871         1.178954         1.317115
 H        -0.379975         0.937333        -0.319256
 H        -0.447905        -0.422948         0.739158
 H         1.769629        -0.594275         1.934520
 H         1.427210        -1.890411         0.674209
 H         4.288235        -0.644984         2.487757
 H         5.264135        -1.495606         1.262001
 H         5.552741         1.013224         0.878819
 H         4.355332         1.990425        -0.682583
 H         1.867978         1.930924        -1.165569
