19
Iteration:  2900charge 0 multiplicity 1
 C        -0.012276         0.392167         0.190625
 C         1.451420         0.021719         0.040525
 C         2.230163        -0.655899         1.172377
 O         3.326892        -1.381858         0.649134
 C         4.497611        -0.813169         1.109202
 C         4.628361         0.535086         0.644550
 C         3.857468         1.192995        -0.227505
 C         2.417472         0.878400        -0.718660
 O         1.894415        -0.349983        -1.211905
 H        -0.250186         1.337115        -0.344151
 H        -0.611709        -0.377232        -0.280162
 H        -0.233390         0.429709         1.238593
 H         2.307205         0.082041         1.986932
 H         1.580878        -1.450297         1.684151
 H         4.718689        -0.941287         2.313535
 H         5.361237        -1.379390         0.716453
 H         5.631413         0.968088         0.916596
 H         4.160713         2.191198        -0.576958
 H         1.892928         1.702285        -1.152503
