19
Iteration:  2796
 C         0.042555         0.290076         0.155661
 C         1.535416         0.083300         0.029122
 C         2.008771        -0.972441         1.112991
 O         3.357895        -1.598642         1.048475
 C         4.473606        -0.786866         1.252064
 C         4.713650         0.468034         0.297449
 C         3.900577         1.274953        -0.370286
 C         2.329325         1.105176        -0.533057
 O         1.944292        -0.052762        -1.360744
 H        -0.475894         0.520987        -0.818137
 H        -0.514948        -0.653375         0.597331
 H        -0.062800         1.227142         0.874809
 H         1.987514        -0.344196         2.094529
 H         1.402088        -1.864043         1.082718
 H         4.551861        -0.091972         2.244575
 H         5.369063        -1.369053         1.210204
 H         5.738462         0.683809         0.220111
 H         4.209818         2.240153        -0.895445
 H         1.859053         1.997281        -0.900906
