19
Iteration:   545
 C         0.102638         0.398717         0.186741
 C         1.596397         0.034849         0.099746
 C         1.981792        -0.842011         1.228142
 O         3.251549        -1.410665         1.075867
 C         4.458257        -0.629509         1.252165
 C         4.654558         0.557208         0.244534
 C         3.876853         1.245270        -0.579241
 C         2.369938         0.953514        -0.755453
 O         2.051313        -0.435167        -1.138764
 H        -0.018958         1.175566         0.872132
 H        -0.326973         0.750175        -0.794013
 H        -0.541029        -0.364848         0.512363
 H         1.833475        -0.305138         2.194723
 H         1.292329        -1.691612         0.971343
 H         4.343616        -0.137742         2.259344
 H         5.226427        -1.304230         1.313402
 H         5.764100         0.720393         0.077202
 H         4.267681         1.821102        -1.276025
 H         1.777502         1.721093        -1.193765
