19
Iteration:  4607charge 0 multiplicity 1
 C        -0.010295         0.273260         0.089250
 C         1.495950         0.047036         0.201228
 C         1.940817        -1.030288         1.106224
 O         3.300179        -1.588261         0.862813
 C         4.289830        -0.529263         1.265283
 C         4.839044         0.394614         0.120739
 C         3.975098         1.321001        -0.392266
 C         2.438819         1.067838        -0.388745
 O         2.081458        -0.078971        -1.152052
 H        -0.132301        -0.075278        -0.895111
 H        -0.553105        -0.275953         0.858119
 H        -0.555742         1.172090         0.010011
 H         2.027044        -0.621099         2.106736
 H         1.230087        -1.961025         1.134066
 H         3.774665         0.087062         2.007532
 H         5.141893        -1.071322         1.461063
 H         5.919248         0.332640        -0.140806
 H         4.368908         1.964641        -1.131976
 H         1.995128         2.069514        -0.753791
