19
Iteration:  1565
 C         0.108456         0.390669         0.134441
 C         1.604510         0.077345         0.104163
 C         1.992707        -0.654114         1.374447
 O         3.219010        -1.432132         1.040804
 C         4.416370        -0.647150         1.119724
 C         4.630016         0.559551         0.290621
 C         3.763558         1.261749        -0.488079
 C         2.426445         0.861047        -0.851832
 O         2.112821        -0.547528        -1.108814
 H        -0.147248         0.729015         1.197627
 H         0.103978         1.243262        -0.520588
 H        -0.483708        -0.497468        -0.122474
 H         2.036616        -0.063077         2.326856
 H         1.235323        -1.534324         1.495776
 H         4.601618        -0.464318         2.196509
 H         5.175468        -1.269792         0.748323
 H         5.667761         0.920853         0.261143
 H         4.205628         2.158906        -1.139360
 H         1.935101         1.724327        -1.507580
