19
Iteration:  2924charge 0 multiplicity 1
 C         0.015253         0.388274         0.330561
 C         1.459432         0.120558         0.006133
 C         2.103244        -0.745445         1.178746
 O         3.281695        -1.519787         0.808354
 C         4.527815        -0.823142         1.086705
 C         4.698696         0.606319         0.578043
 C         3.787655         1.226529        -0.246930
 C         2.418971         0.932181        -0.808682
 O         2.006374        -0.336253        -1.320122
 H        -0.198349         1.288192        -0.008648
 H        -0.529877        -0.291942        -0.194442
 H        -0.209077         0.276160         1.325537
 H         2.153193        -0.094826         1.984773
 H         1.411956        -1.543036         1.547543
 H         4.693610        -0.759542         2.312358
 H         5.394211        -1.514283         0.781484
 H         5.424927         1.235664         0.972943
 H         4.073118         2.301328        -0.550631
 H         1.989218         1.801181        -1.446830
