19
Iteration:  2721charge 0 multiplicity 1
 C         0.148691         0.585346         0.434367
 C         1.536330         0.043853         0.047720
 C         2.019456        -1.114101         0.936063
 O         3.387773        -1.529046         0.774346
 C         4.334992        -0.598633         1.356140
 C         4.681600         0.670689         0.515401
 C         3.899456         1.194360        -0.423216
 C         2.455718         0.897721        -0.677584
 O         1.887812        -0.315146        -1.321569
 H         0.213706         1.669947         0.277375
 H        -0.678632         0.005070        -0.108793
 H        -0.250176         0.457144         1.505565
 H         1.798898        -0.954867         1.980118
 H         1.421721        -1.977963         0.573560
 H         3.920275        -0.108042         2.204444
 H         5.239436        -1.101413         1.632430
 H         5.659820         1.123707         0.608106
 H         4.346606         1.994585        -1.029359
 H         1.952785         1.712934        -1.122943
