19
Iteration:  3563
 C        -0.030626         0.328515         0.229987
 C         1.517079         0.026954         0.064734
 C         1.971553        -1.064858         1.055194
 O         3.295872        -1.502230         0.886748
 C         4.469375        -0.671423         1.268860
 C         4.754663         0.555220         0.299427
 C         3.903520         1.203107        -0.454801
 C         2.462925         1.091300        -0.434936
 O         2.010830        -0.133848        -1.264656
 H        -0.459935         1.229015        -0.452189
 H        -0.646548        -0.606758         0.071670
 H        -0.084825         0.805637         1.251609
 H         1.889435        -0.562629         2.143163
 H         1.301659        -1.908675         1.036280
 H         4.196904        -0.129699         2.266654
 H         5.271653        -1.304635         1.337868
 H         5.844302         0.768535         0.135487
 H         4.230848         1.824748        -1.251699
 H         1.917720         1.909476        -0.794291
