19
Iteration:   762charge 0 multiplicity 1
 C         0.089764         0.418547         0.202837
 C         1.517165         0.085400         0.158015
 C         2.009498        -0.893152         1.166017
 O         3.304256        -1.381616         0.899120
 C         4.344685        -0.446945         1.361404
 C         4.815760         0.575525         0.344530
 C         3.932255         1.089672        -0.577109
 C         2.436775         0.863391        -0.763530
 O         1.917166        -0.452175        -1.164212
 H        -0.059392         1.220231         0.953110
 H        -0.380107         0.860791        -0.781383
 H        -0.581331        -0.373821         0.609731
 H         1.951124        -0.522885         2.281081
 H         1.391528        -1.778550         1.094777
 H         4.030668         0.040894         2.243888
 H         5.220487        -1.162671         1.595479
 H         5.862263         0.864735         0.217671
 H         4.226123         1.711276        -1.325584
 H         1.992759         1.638702        -1.310827
