19
Iteration:  3336charge 0 multiplicity 1
 C         0.187196         0.521822         0.404550
 C         1.626127        -0.026570         0.017539
 C         2.050740        -0.990275         1.112970
 O         3.287436        -1.615531         0.863311
 C         4.355525        -0.732497         1.115123
 C         4.545752         0.629885         0.480634
 C         3.780639         1.358434        -0.348153
 C         2.419324         0.976910        -0.668592
 O         2.055316        -0.286593        -1.369119
 H        -0.288699         0.820028        -0.453976
 H        -0.381546        -0.285846         0.845251
 H         0.264131         1.220974         1.121981
 H         1.940438        -0.364860         2.068635
 H         1.353476        -1.916325         1.089216
 H         4.421766        -0.594650         2.134772
 H         5.326733        -1.289019         0.840148
 H         5.410552         1.232471         0.841814
 H         4.064106         2.372615        -0.561710
 H         1.769254         1.848533        -1.171471
