19
Iteration:  4129
 C         0.141300         0.401335         0.402632
 C         1.563917         0.093896        -0.030141
 C         2.096134        -1.069116         0.937876
 O         3.419203        -1.556690         0.966460
 C         4.382823        -0.622969         1.465216
 C         4.662899         0.571230         0.554003
 C         3.962319         1.152454        -0.427835
 C         2.463281         0.954106        -0.764010
 O         1.677136        -0.093123        -1.471747
 H        -0.412850         0.757662        -0.471047
 H        -0.437344        -0.523390         0.717412
 H         0.203321         1.124216         1.184761
 H         1.863553        -0.662091         1.898869
 H         1.361159        -2.010662         0.833745
 H         4.129469        -0.412920         2.459931
 H         5.295337        -1.235245         1.403562
 H         5.579359         1.036901         0.630134
 H         4.440855         1.946742        -1.052526
 H         2.106135         2.077395        -1.140520
