19
Iteration:  2163charge 0 multiplicity 1
 C         0.117228         0.471035         0.415951
 C         1.525000         0.055063        -0.093692
 C         2.120935        -0.925734         1.049424
 O         3.417264        -1.426717         1.152916
 C         4.379179        -0.462835         1.512633
 C         4.662178         0.594544         0.394908
 C         3.836770         0.949575        -0.643293
 C         2.427966         0.913939        -0.858676
 O         1.834068        -0.318949        -1.374004
 H         0.367961         1.134925         1.286652
 H        -0.539829         0.838865        -0.378857
 H        -0.480470        -0.420791         0.895076
 H         1.764434        -0.633181         2.048982
 H         1.614857        -1.877214         0.758034
 H         4.228509        -0.074545         2.482329
 H         5.233427        -1.052776         1.523282
 H         5.723086         0.916970         0.392488
 H         4.267317         1.559313        -1.460475
 H         1.913386         1.862367        -1.298777
