19
Iteration:   550
 C         0.113694         0.391164         0.190291
 C         1.566672         0.010276         0.059294
 C         1.999394        -0.844302         1.232016
 O         3.248473        -1.423844         1.148996
 C         4.447974        -0.627540         1.248821
 C         4.661383         0.552508         0.246063
 C         3.884100         1.241757        -0.579222
 C         2.377342         0.977257        -0.769272
 O         2.037711        -0.416037        -1.188606
 H         0.149524         1.164383         1.070925
 H        -0.240718         0.751693        -0.773073
 H        -0.558178        -0.470629         0.542214
 H         1.674364        -0.271574         2.126005
 H         1.341728        -1.731453         1.131281
 H         4.469830        -0.054497         2.231867
 H         5.229048        -1.520697         1.206539
 H         5.705058         0.746495         0.114268
 H         4.308032         2.066727        -1.365329
 H         1.683552         1.811450        -1.137995
