19
Iteration:  1140
 C         0.035627         0.336965         0.204339
 C         1.521827         0.085785         0.009843
 C         2.128431        -0.651807         1.230243
 O         3.341696        -1.365168         0.977691
 C         4.471970        -0.670380         1.405622
 C         4.697844         0.503740         0.451740
 C         3.839090         1.098901        -0.517495
 C         2.401269         0.849464        -0.866434
 O         1.868323        -0.405808        -1.302915
 H        -0.148325         1.148666         1.007328
 H        -0.438242         0.768099        -0.794948
 H        -0.530245        -0.599590         0.445648
 H         2.392850         0.245911         1.928461
 H         1.410976        -1.310960         1.763668
 H         4.485202        -0.262807         2.394732
 H         5.397315        -1.391271         1.242564
 H         5.650711         1.038603         0.591007
 H         4.288832         1.934388        -0.890417
 H         1.920001         1.596056        -1.461777
