19
Iteration:  1842charge 0 multiplicity 1
 C         0.038993         0.469232         0.136182
 C         1.523163         0.020270         0.147010
 C         1.903225        -0.963016         1.203814
 O         3.363195        -1.450087         1.089930
 C         4.396407        -0.409627         1.275642
 C         4.744317         0.477814         0.106411
 C         3.873032         1.125080        -0.619501
 C         2.397149         0.956638        -0.634817
 O         2.078784        -0.389168        -1.104278
 H        -0.141941         1.263729         0.777775
 H        -0.155927         0.890091        -0.875904
 H        -0.759614        -0.361057         0.217506
 H         1.731945        -0.518445         2.205273
 H         1.294315        -1.955185         1.165784
 H         4.128462         0.131179         2.242119
 H         5.282151        -0.884884         1.623991
 H         5.875473         0.570217         0.035132
 H         4.337846         1.780193        -1.351506
 H         1.773200         1.860808        -1.136554
