19
Iteration:  2652
 C         0.031878         0.296284         0.373969
 C         1.558913         0.037068         0.067322
 C         2.017771        -1.048138         1.051853
 O         3.388112        -1.427643         0.892372
 C         4.345886        -0.504527         1.383508
 C         4.740122         0.446755         0.368482
 C         3.946437         1.052595        -0.509904
 C         2.473765         0.974754        -0.624783
 O         1.866429        -0.035286        -1.374378
 H        -0.041229         1.097975         1.145946
 H        -0.442015         0.423520        -0.642910
 H        -0.555035        -0.691128         0.736219
 H         1.763878        -0.666004         2.042703
 H         1.471763        -1.936049         0.818357
 H         3.855562         0.000576         2.208172
 H         5.188966        -0.957291         1.794225
 H         5.791367         0.800401         0.324478
 H         4.337419         1.783366        -1.205626
 H         2.128674         1.971543        -0.801542
