19
Iteration:  2313
 C         0.247576         0.511851         0.328743
 C         1.568541         0.005539        -0.016706
 C         2.054279        -0.810918         1.159295
 O         3.372540        -1.453172         1.091524
 C         4.437696        -0.509184         1.340603
 C         4.535351         0.577363         0.417800
 C         3.807145         1.090028        -0.523121
 C         2.391302         0.872304        -0.844583
 O         1.889650        -0.442348        -1.369874
 H         0.279887         0.943569         1.291980
 H        -0.052188         1.311074        -0.287677
 H        -0.580747        -0.320243         0.379190
 H         1.896078        -0.375921         2.101236
 H         1.378943        -1.664746         1.112882
 H         4.342436        -0.204744         2.298746
 H         5.373544        -1.156269         1.349481
 H         5.548860         1.069458         0.217352
 H         4.348791         1.747584        -1.202854
 H         1.710830         1.597965        -1.112872
