19
Iteration:  2976charge 0 multiplicity 1
 C         0.017899         0.325623         0.099183
 C         1.511021         0.055713         0.140158
 C         2.053793        -1.002174         1.170668
 O         3.296457        -1.587892         1.010559
 C         4.428983        -0.705000         1.141928
 C         4.696407         0.542745         0.262413
 C         3.834993         1.243422        -0.391328
 C         2.444041         1.054466        -0.561375
 O         2.044162        -0.095851        -1.239815
 H        -0.137480         1.208234        -0.683187
 H        -0.655561        -0.602657        -0.024304
 H        -0.254914         0.770632         1.143564
 H         1.968031        -0.379450         2.163877
 H         1.348613        -1.897614         1.178076
 H         4.448076        -0.423633         2.154967
 H         5.202047        -1.414002         1.013232
 H         5.746868         0.847167         0.113846
 H         4.119415         2.207332        -0.914707
 H         1.868831         1.917756        -0.772623
