19
Iteration:    86charge 0 multiplicity 1
 C        -0.004677         0.274945         0.198884
 C         1.482751         0.093181         0.030458
 C         2.176913        -0.560579         1.257328
 O         3.311060        -1.401320         0.999998
 C         4.519072        -0.753970         1.245485
 C         4.615245         0.473450         0.387528
 C         3.795051         1.062922        -0.467335
 C         2.378684         0.949720        -0.850277
 O         2.001494        -0.338161        -1.228183
 H        -0.259708         1.175009         0.903529
 H        -0.420547         0.441161        -0.727952
 H        -0.425479        -0.719192         0.625031
 H         2.414139         0.312411         1.879988
 H         1.446946        -1.080693         1.886371
 H         4.679396        -0.467221         2.336459
 H         5.311273        -1.486400         0.992883
 H         5.633207         0.809961         0.390708
 H         4.191464         2.075928        -0.767803
 H         1.815874         1.761121        -1.453565
