19
Iteration:  1145
 C         0.076674         0.378366         0.205321
 C         1.510295         0.044233         0.018811
 C         2.145209        -0.653556         1.208196
 O         3.322129        -1.368911         0.971251
 C         4.449907        -0.638998         1.348499
 C         4.670123         0.507227         0.452834
 C         3.877635         1.107639        -0.517609
 C         2.378974         0.858547        -0.863315
 O         1.895884        -0.443858        -1.263008
 H        -0.040048         1.026785         1.022175
 H        -0.338959         0.723535        -0.664747
 H        -0.355596        -0.564400         0.529236
 H         2.146175         0.102366         1.986697
 H         1.331249        -1.283661         1.658612
 H         4.356009        -0.232629         2.432447
 H         5.162254        -1.394992         1.311635
 H         5.639263         0.993702         0.593651
 H         4.347691         2.149206        -0.936198
 H         1.902103         1.705372        -1.462480
