19
Iteration:  1744
 C         0.179423         0.488830         0.332725
 C         1.543212         0.017503         0.092221
 C         2.015980        -1.009514         1.076929
 O         3.426977        -1.325771         0.986698
 C         4.295524        -0.361845         1.431370
 C         4.733902         0.568185         0.341218
 C         3.946358         0.941238        -0.669539
 C         2.414372         0.863124        -0.711646
 O         1.799727        -0.388248        -1.288029
 H         0.160042         0.807777         1.319422
 H        -0.160744         1.331357        -0.335656
 H        -0.657199        -0.231110         0.008397
 H         1.790485        -0.726552         2.099266
 H         1.388156        -1.972268         0.911482
 H         3.875014         0.386072         2.210588
 H         5.053977        -0.912735         1.902839
 H         5.871957         0.754171         0.455254
 H         4.485503         1.513508        -1.331343
 H         1.967236         1.850771        -1.100357
