19
Iteration:   544
 C         0.101061         0.401894         0.181968
 C         1.599959         0.042245         0.107981
 C         1.977582        -0.842726         1.225403
 O         3.254522        -1.408920         1.060301
 C         4.450240        -0.620411         1.254200
 C         4.660140         0.553385         0.245706
 C         3.864943         1.240713        -0.576254
 C         2.372844         0.947233        -0.749540
 O         2.053920        -0.438335        -1.130563
 H        -0.065139         1.206618         0.843172
 H        -0.330038         0.744481        -0.769867
 H        -0.553548        -0.378049         0.515638
 H         1.869482        -0.325097         2.220331
 H         1.293944        -1.667768         0.969900
 H         4.328702        -0.174955         2.244800
 H         5.288810        -1.295359         1.329682
 H         5.756920         0.717303         0.080479
 H         4.299355         1.826720        -1.309781
 H         1.803931         1.702273        -1.223628
