19
Iteration:   913
 C         0.030993         0.577707         0.105245
 C         1.469654        -0.020143         0.131573
 C         1.963170        -0.981849         1.168177
 O         3.320743        -1.409535         1.082855
 C         4.503063        -0.519444         1.274132
 C         4.770090         0.558032         0.229942
 C         3.834352         1.232861        -0.613269
 C         2.414424         0.840098        -0.671373
 O         2.010523        -0.471835        -1.091686
 H        -0.038245         1.259124         0.925165
 H        -0.036624         1.187028        -0.889833
 H        -0.854811        -0.041087         0.170779
 H         1.634606        -0.536093         2.126704
 H         1.377709        -1.928036         1.170753
 H         4.474242         0.085288         2.207196
 H         5.362311        -1.127179         1.406821
 H         5.789878         0.810514         0.102592
 H         4.219201         2.011868        -1.201058
 H         1.890698         1.594177        -1.318529
