19
Iteration:   182charge 0 multiplicity 1
 C         0.161751         0.436913         0.005479
 C         1.609161         0.011729         0.093606
 C         2.120913        -0.693271         1.396494
 O         3.292660        -1.452255         1.270124
 C         4.433278        -0.744659         1.022770
 C         4.559677         0.513486         0.228699
 C         3.774515         1.341555        -0.448264
 C         2.380850         0.958820        -0.761218
 O         1.944635        -0.499157        -1.219268
 H        -0.219941         0.757639         1.049932
 H         0.112146         1.228159        -0.606312
 H        -0.358180        -0.508880        -0.352987
 H         2.106218         0.000426         2.250482
 H         1.296362        -1.383561         1.759624
 H         4.801113        -0.360750         2.005812
 H         5.324379        -1.453587         0.756108
 H         5.634214         0.787461         0.351881
 H         4.317696         2.106885        -1.069746
 H         1.648379         1.617383        -1.356580
