19
Iteration:  4616charge 0 multiplicity 1
 C        -0.056086         0.231846         0.073881
 C         1.534460         0.089641         0.185582
 C         1.955395        -1.009175         1.178283
 O         3.317045        -1.597083         0.862818
 C         4.322129        -0.571310         1.215767
 C         4.824087         0.391814         0.161888
 C         3.969414         1.254524        -0.367859
 C         2.484807         1.110565        -0.460429
 O         2.018642        -0.044343        -1.194771
 H        -0.293475        -0.216759        -0.867883
 H        -0.574240        -0.488278         0.799909
 H        -0.247852         1.267499         0.149325
 H         1.939490        -0.477370         2.167443
 H         1.238585        -1.925426         1.143901
 H         3.988745         0.016836         2.022784
 H         5.171482        -0.992234         1.749499
 H         5.851168         0.475754         0.129023
 H         4.249676         2.051547        -1.051235
 H         1.847776         2.051705        -0.734927
