19
Iteration:   279
 C         0.001037         0.565969         0.188018
 C         1.454452        -0.043060         0.076006
 C         2.045498        -0.899411         1.193328
 O         3.383218        -1.411441         1.038800
 C         4.504792        -0.590778         1.312560
 C         4.679597         0.639295         0.366887
 C         3.892877         1.174591        -0.662409
 C         2.420304         0.833648        -0.711755
 O         1.889189        -0.439727        -1.183633
 H         0.074826         1.443179         0.912578
 H        -0.239736         0.929168        -0.771603
 H        -0.665301        -0.251429         0.588951
 H         2.027132        -0.281804         2.154363
 H         1.391646        -1.832192         1.364133
 H         4.658357        -0.289881         2.378096
 H         5.306534        -1.179159         1.083503
 H         5.770843         0.903897         0.333595
 H         4.378072         1.784109        -1.564786
 H         1.898238         1.693808        -1.266315
