19
Iteration:  4953charge 0 multiplicity 1
 C         0.101017         0.449022         0.257003
 C         1.542007        -0.029858         0.015262
 C         2.040237        -1.090876         1.011577
 O         3.376398        -1.601390         0.768757
 C         4.330227        -0.667711         1.214640
 C         4.717725         0.599415         0.540902
 C         3.913831         1.279680        -0.329798
 C         2.421522         1.004751        -0.542616
 O         1.900516        -0.134945        -1.308252
 H        -0.137750         0.884509         1.264700
 H        -0.041802         1.310022        -0.502124
 H        -0.640654        -0.335564         0.113636
 H         1.879051        -0.666790         1.969774
 H         1.301622        -1.956426         0.986266
 H         4.080896        -0.292259         2.214890
 H         5.232740        -1.266131         1.459289
 H         5.793459         0.966889         0.688358
 H         4.367134         2.207658        -0.745454
 H         1.883968         1.863599        -0.790285
