19
Iteration:   951
 C         0.189549         0.392032         0.246075
 C         1.589780         0.052679         0.089836
 C         2.031566        -0.717441         1.249949
 O         3.274311        -1.435753         1.008814
 C         4.345183        -0.614811         1.259518
 C         4.588068         0.563323         0.384062
 C         3.849190         1.230596        -0.569169
 C         2.458929         0.864458        -0.848609
 O         1.980114        -0.489590        -1.223356
 H         0.032580         1.355381         0.878311
 H        -0.177278         0.617615        -0.730889
 H        -0.374604        -0.528626         0.614567
 H         2.250279        -0.080561         2.090960
 H         1.275520        -1.466240         1.474940
 H         4.174757        -0.261483         2.359397
 H         5.261587        -1.337908         1.172312
 H         5.660229         1.009373         0.421540
 H         4.272531         2.067628        -1.167945
 H         1.870418         1.642542        -1.378367
