19
Iteration:  4024
 C         0.027660         0.282281         0.229353
 C         1.498135         0.024129        -0.015885
 C         2.073348        -1.054571         1.039608
 O         3.420545        -1.495634         0.927048
 C         4.393028        -0.625338         1.422737
 C         4.749712         0.408667         0.351761
 C         3.882393         1.107731        -0.467750
 C         2.395780         1.135733        -0.504772
 O         1.873554         0.041854        -1.354118
 H        -0.433771         1.201340        -0.335476
 H        -0.530729        -0.656643        -0.002154
 H        -0.076138         0.442441         1.357675
 H         1.966906        -0.368523         1.950203
 H         1.449322        -1.877545         1.091508
 H         4.118682        -0.249329         2.398020
 H         5.263027        -1.286038         1.633964
 H         5.849301         0.593197         0.297108
 H         4.438254         1.592425        -1.330072
 H         1.955234         2.006257        -0.852688
