19
Iteration:  2170charge 0 multiplicity 1
 C         0.181265         0.416219         0.388980
 C         1.522916         0.043549        -0.013253
 C         2.079986        -0.910243         1.030532
 O         3.408701        -1.464896         1.194907
 C         4.377166        -0.426003         1.498288
 C         4.630093         0.573163         0.345835
 C         3.874357         0.960919        -0.659649
 C         2.376067         0.956834        -0.841203
 O         1.871163        -0.304153        -1.393170
 H         0.350383         1.130058         1.141557
 H        -0.532348         0.946315        -0.258636
 H        -0.483695        -0.455600         0.924010
 H         1.622204        -0.613905         2.053910
 H         1.499677        -1.786727         0.688146
 H         4.192351        -0.042612         2.597498
 H         5.350921        -1.042421         1.498726
 H         5.630874         0.849631         0.259810
 H         4.279046         1.518772        -1.484060
 H         2.056926         1.896957        -1.204162
