19
Iteration:  1336
 C         0.145645         0.537177         0.258164
 C         1.499405        -0.055515         0.130272
 C         1.973928        -1.002657         1.179968
 O         3.339085        -1.389632         1.079519
 C         4.326454        -0.363499         1.383129
 C         4.728384         0.558243         0.232523
 C         3.904609         1.093323        -0.648532
 C         2.440180         0.843359        -0.746122
 O         1.961369        -0.410193        -1.275217
 H         0.031064         0.970701         1.299540
 H         0.081598         1.359361        -0.508614
 H        -0.665868        -0.127407        -0.041067
 H         1.666336        -0.828427         2.268766
 H         1.354727        -1.918304         1.022335
 H         4.066033         0.202952         2.279335
 H         5.345412        -0.935014         1.574167
 H         5.811847         0.730349         0.286959
 H         4.309152         1.827168        -1.282159
 H         1.916206         1.655343        -1.198305
