19
Iteration:  4730charge 0 multiplicity 1
 C         0.053288         0.534344         0.284108
 C         1.460451         0.002757         0.073129
 C         1.999738        -1.018469         1.069959
 O         3.327767        -1.431310         0.655544
 C         4.410040        -0.784718         1.199788
 C         4.666005         0.615679         0.590099
 C         3.873029         1.240700        -0.341327
 C         2.472151         0.900137        -0.581752
 O         2.057578        -0.244837        -1.271510
 H        -0.721822        -0.280955         0.631495
 H        -0.036702         1.233195         1.091641
 H        -0.393994         0.975368        -0.678603
 H         1.952512        -0.724023         2.168252
 H         1.416324        -1.943987         0.658748
 H         4.171578        -0.555278         2.296696
 H         5.315063        -1.381530         1.106033
 H         5.658552         1.099500         1.010536
 H         4.188028         2.223620        -0.737877
 H         2.019257         1.757565        -1.187763
