19
Iteration:  2141charge 0 multiplicity 1
 C         0.144638         0.508774         0.344147
 C         1.486606         0.007941         0.080415
 C         2.042886        -0.918331         1.113901
 O         3.426642        -1.400394         0.910424
 C         4.394214        -0.399769         1.473876
 C         4.755578         0.599020         0.451309
 C         3.957236         1.053903        -0.556144
 C         2.470955         0.725550        -0.849686
 O         1.703983        -0.408573        -1.378841
 H         0.175069         1.236908         1.194881
 H        -0.314636         0.916122        -0.550283
 H        -0.698472        -0.130178         0.681632
 H         1.891984        -0.485639         2.083562
 H         1.459313        -1.859236         1.085442
 H         4.038350        -0.010178         2.386828
 H         5.239540        -0.980499         1.638691
 H         5.722993         1.094445         0.618852
 H         4.243890         1.909526        -1.166045
 H         2.071712         1.787899        -1.142098
