19
Iteration:   737charge 0 multiplicity 1
 C         0.002125         0.334371         0.381276
 C         1.523197         0.040198        -0.043702
 C         2.061295        -0.755230         1.135815
 O         3.347182        -1.354184         1.036886
 C         4.372245        -0.535179         1.387753
 C         4.701568         0.480097         0.441135
 C         3.927769         1.053366        -0.580055
 C         2.500414         0.886350        -0.853141
 O         1.895586        -0.369887        -1.378749
 H        -0.046220         1.207299         1.096833
 H        -0.866900         0.518305        -0.345301
 H        -0.362315        -0.433832         1.119722
 H         2.144689        -0.012424         2.015405
 H         1.455510        -1.672490         1.433225
 H         4.253251        -0.039832         2.359146
 H         5.232597        -1.175088         1.416357
 H         5.704461         0.932958         0.544439
 H         4.377202         1.884654        -1.147845
 H         2.105682         1.793281        -1.420367
