19
Iteration:  3165charge 0 multiplicity 1
 C        -0.010290         0.319946         0.303517
 C         1.469394         0.002692         0.077513
 C         2.016972        -1.129891         0.928638
 O         3.424848        -1.417790         0.880638
 C         4.377107        -0.531429         1.442076
 C         4.797712         0.415537         0.330397
 C         3.932051         1.071957        -0.486004
 C         2.446666         1.092045        -0.486054
 O         1.879431        -0.007569        -1.334020
 H        -0.382717         0.930438        -0.492654
 H        -0.567921        -0.701425         0.406891
 H        -0.044797         0.911035         1.346030
 H         1.834399        -0.815156         1.977407
 H         1.471486        -2.081986         0.705516
 H         3.940177         0.020513         2.306215
 H         5.236023        -1.098422         1.779353
 H         5.890788         0.594753         0.079966
 H         4.258118         1.634496        -1.304978
 H         2.089057         2.002350        -0.833736
