19
Iteration:  4425
 C        -0.012084         0.246498         0.218571
 C         1.485811         0.076392         0.006175
 C         2.046180        -1.005450         1.051021
 O         3.343868        -1.530122         0.864547
 C         4.378869        -0.734231         1.250419
 C         4.803242         0.404647         0.383691
 C         3.890799         1.210158        -0.291278
 C         2.459395         1.116219        -0.459042
 O         1.971959         0.081167        -1.365114
 H        -0.430173        -0.664376         0.845165
 H        -0.487820         1.177204         0.585207
 H        -0.536740        -0.057874        -0.768535
 H         1.887800        -0.469900         2.007515
 H         1.389709        -1.813229         0.866178
 H         4.160895        -0.406441         2.376260
 H         5.215737        -1.531223         1.518563
 H         5.859535         0.587974         0.176517
 H         4.181948         2.018667        -0.919025
 H         2.031110         2.055961        -0.558379
