19
Iteration:   615charge 0 multiplicity 1
 C         0.000898         0.264789         0.146088
 C         1.495909         0.112256         0.033795
 C         2.112243        -0.613751         1.236875
 O         3.341562        -1.389962         1.117192
 C         4.511245        -0.643969         1.275414
 C         4.692908         0.478004         0.383125
 C         3.859257         1.029475        -0.508021
 C         2.412565         0.904655        -0.754196
 O         1.886905        -0.319305        -1.311550
 H        -0.460256         0.329590         1.221333
 H        -0.438249         1.047272        -0.430053
 H        -0.533536        -0.638810        -0.302492
 H         2.422676         0.126209         1.997086
 H         1.367373        -1.415668         1.562820
 H         4.378769        -0.281713         2.348118
 H         5.378742        -1.299693         1.176138
 H         5.713020         0.840713         0.304490
 H         4.379629         1.815853        -1.259943
 H         2.059556         1.916558        -1.219954
