19
Iteration:  3901charge 0 multiplicity 1
 C         0.075883         0.492460         0.306184
 C         1.457161         0.059355         0.035619
 C         2.083343        -0.878905         1.107542
 O         3.360564        -1.366613         0.658258
 C         4.553070        -0.753730         1.227154
 C         4.659709         0.638076         0.671790
 C         3.819954         1.142374        -0.301225
 C         2.441107         0.830575        -0.773114
 O         1.860138        -0.348745        -1.282475
 H        -0.144374         1.280574        -0.477148
 H        -0.801871        -0.349321         0.143532
 H         0.036440         0.829291         1.351431
 H         2.205425        -0.321331         2.050156
 H         1.400028        -1.731374         1.267591
 H         4.487181        -0.775908         2.350155
 H         5.354915        -1.435365         0.924368
 H         5.550676         1.205779         0.978456
 H         4.106528         2.149659        -0.533747
 H         2.134027         1.699914        -1.325705
