19
Iteration:  1529
 C        -0.062021         0.245822         0.155754
 C         1.439161         0.067747        -0.004313
 C         2.176643        -0.496043         1.315735
 O         3.326814        -1.402310         1.130266
 C         4.530355        -0.734334         1.242657
 C         4.750985         0.542040         0.419920
 C         3.819304         1.091591        -0.411837
 C         2.444871         0.846031        -0.874693
 O         1.869099        -0.377030        -1.344268
 H        -0.500455         0.425923         1.173385
 H        -0.438179         1.190255        -0.400180
 H        -0.673386        -0.398729        -0.387897
 H         2.503288         0.389746         1.945457
 H         1.535817        -1.110765         1.949803
 H         4.876228        -0.439907         2.223598
 H         5.373051        -1.475342         0.872877
 H         5.769273         0.980892         0.506899
 H         4.188940         1.920319        -0.986930
 H         1.979800         1.696124        -1.546849
