19
Iteration:  1318
 C         0.151070         0.636427         0.110062
 C         1.578879        -0.063458         0.091484
 C         1.977287        -1.166221         1.238046
 O         3.376976        -1.435151         1.153025
 C         4.370822        -0.367049         1.357893
 C         4.710250         0.528348         0.177427
 C         3.823201         1.141296        -0.667815
 C         2.426256         0.881243        -0.643537
 O         1.942087        -0.369474        -1.206307
 H        -0.007926         0.931652         1.125424
 H         0.057596         1.495646        -0.494281
 H        -0.608811        -0.073603        -0.413795
 H         1.590829        -0.600692         2.108591
 H         1.431951        -2.078974         1.158398
 H         3.998262         0.252205         2.264459
 H         5.169392        -0.936876         1.793469
 H         5.783334         0.752407        -0.054779
 H         4.189415         1.758675        -1.588827
 H         1.788785         1.748965        -0.958756
