19
Iteration:  2938
 C         0.109253         0.375696         0.279494
 C         1.594688         0.053809         0.010749
 C         2.076329        -0.808356         1.110326
 O         3.268439        -1.509377         0.930879
 C         4.450165        -0.779825         1.084580
 C         4.594284         0.579874         0.482213
 C         3.805535         1.306174        -0.252080
 C         2.424271         0.958098        -0.754607
 O         1.984242        -0.320631        -1.292072
 H        -0.291544         1.403005         0.040881
 H        -0.617353        -0.328808        -0.205836
 H         0.045743         0.302902         1.391912
 H         2.154834        -0.290097         2.061904
 H         1.308428        -1.542804         1.208247
 H         4.686441        -0.676384         2.241404
 H         5.264950        -1.428113         0.596422
 H         5.627240         0.895387         0.700883
 H         4.138041         2.307049        -0.505631
 H         1.930023         1.879527        -1.243173
