19
Iteration:  2745
 C         0.074476         0.436818         0.346620
 C         1.546529        -0.007671         0.081821
 C         2.029356        -1.051843         1.078382
 O         3.322979        -1.346481         0.606072
 C         4.272384        -0.609272         1.363891
 C         4.771279         0.577256         0.547587
 C         3.964191         1.139959        -0.460671
 C         2.511208         0.911163        -0.643870
 O         1.864421        -0.249718        -1.267718
 H        -0.122406         1.436630        -0.111164
 H        -0.582795        -0.385438         0.083159
 H        -0.234771         0.580949         1.369198
 H         2.004687        -0.742010         2.087737
 H         1.396451        -1.986697         0.945835
 H         3.995048        -0.243667         2.308957
 H         5.207223        -1.264974         1.438634
 H         5.802779         1.091448         0.709084
 H         4.457629         1.907523        -1.048382
 H         1.990047         1.861044        -0.934236
