19
Iteration:  4295
 C         0.156412         0.501166         0.323811
 C         1.551371         0.005724        -0.017337
 C         2.132455        -0.901614         0.970500
 O         3.355965        -1.484029         0.674773
 C         4.428076        -0.782117         1.221501
 C         4.558974         0.593573         0.674847
 C         3.842174         1.195495        -0.276684
 C         2.430461         0.993712        -0.629325
 O         1.879968        -0.280918        -1.303271
 H        -0.275065        -0.165064         1.115409
 H        -0.062573         1.485841         0.643865
 H        -0.309787         0.402501        -0.680269
 H         2.037022        -0.426029         1.963214
 H         1.351329        -1.809142         1.105486
 H         4.389491        -0.826791         2.333636
 H         5.241445        -1.364975         0.821960
 H         5.295959         1.097569         1.241880
 H         4.304694         2.122211        -0.546690
 H         1.999164         1.920525        -1.122368
