19
Iteration:   151
 C        -0.055879         0.408413         0.050730
 C         1.451004         0.012501         0.100738
 C         2.074327        -0.574916         1.369563
 O         3.253306        -1.372314         1.144023
 C         4.566382        -0.784035         1.062127
 C         4.710767         0.467333         0.261778
 C         3.793969         1.231432        -0.489559
 C         2.334579         0.909577        -0.778160
 O         2.146725        -0.474050        -1.140642
 H        -0.404564         0.507670         1.168196
 H        -0.250556         1.277250        -0.513878
 H        -0.698874        -0.433713        -0.439123
 H         2.266081         0.174025         2.122037
 H         1.368244        -1.317483         1.798682
 H         4.910694        -0.490110         2.038201
 H         5.292745        -1.696161         0.721600
 H         5.631063         0.988087         0.388922
 H         4.083333         2.229743        -0.767591
 H         1.847154         1.722693        -1.447715
