19
Iteration:  3713
 C         0.225395         0.546188         0.380767
 C         1.589539         0.029654         0.053324
 C         1.981883        -1.130268         0.998722
 O         3.369020        -1.544134         0.866054
 C         4.403155        -0.638686         1.241980
 C         4.578700         0.684256         0.571276
 C         3.886174         1.291071        -0.430970
 C         2.447304         0.908941        -0.698683
 O         1.824036        -0.291444        -1.362118
 H         0.106303         1.555524         0.023279
 H        -0.629759        -0.028489        -0.124351
 H         0.191478         0.365302         1.446395
 H         1.890241        -0.607611         2.049598
 H         1.388934        -2.069295         0.932316
 H         4.459177        -0.438001         2.345321
 H         5.404094        -1.184281         0.911336
 H         5.588647         1.007833         0.926909
 H         4.289685         2.213195        -0.727454
 H         1.817768         1.728151        -1.211289
