19
Iteration:  3818
 C        -0.018005         0.293035         0.111570
 C         1.488474         0.056257         0.130070
 C         2.026081        -0.936506         1.122492
 O         3.275405        -1.491718         0.891995
 C         4.459091        -0.673123         1.187069
 C         4.809360         0.465635         0.229494
 C         3.858712         1.262959        -0.338110
 C         2.382434         1.091707        -0.538019
 O         2.070210        -0.184153        -1.123645
 H        -0.410656         0.801580        -0.837673
 H        -0.606318        -0.679056         0.206040
 H        -0.409152         0.970248         0.877891
 H         1.968592        -0.573134         2.221899
 H         1.348728        -1.863721         1.107800
 H         4.416754        -0.297445         2.181835
 H         5.277487        -1.445130         1.098488
 H         5.776254         0.626980        -0.065491
 H         4.157981         2.089987        -1.027587
 H         1.828422         1.940228        -0.863870
