19
Iteration:   399
 C        -0.132428         0.403492         0.227511
 C         1.414242         0.031623         0.127881
 C         2.007003        -0.896371         1.137493
 O         3.362799        -1.278938         0.977765
 C         4.462700        -0.380219         1.322111
 C         4.877397         0.468773         0.255668
 C         3.954643         1.011813        -0.618456
 C         2.439208         0.842001        -0.616848
 O         1.930578        -0.387742        -1.163292
 H        -0.314843         0.997653         1.208696
 H        -0.251532         1.193401        -0.432921
 H        -0.860324        -0.443770         0.052707
 H         1.786953        -0.409543         2.122826
 H         1.470248        -1.831232         1.049774
 H         4.314063         0.250790         2.305778
 H         5.271268        -1.116255         1.580114
 H         5.914777         0.613634         0.066016
 H         4.535717         1.416866        -1.704082
 H         2.112925         1.692721        -1.257032
