19
Iteration:  3004
 C        -0.023408         0.197142         0.115428
 C         1.486999         0.074643         0.107916
 C         2.045987        -0.902305         1.102867
 O         3.318782        -1.409994         0.806207
 C         4.469010        -0.644556         1.299132
 C         4.867813         0.368061         0.258455
 C         3.902513         1.169459        -0.313814
 C         2.413321         1.122613        -0.477455
 O         1.903794        -0.117047        -1.223568
 H        -0.493585         0.608857        -0.768108
 H        -0.593287        -0.690872         0.328764
 H        -0.146281         0.919883         0.886780
 H         1.967983        -0.499637         2.097657
 H         1.447697        -1.774151         0.968667
 H         4.045892        -0.192111         2.287009
 H         5.189887        -1.498899         1.509896
 H         5.934133         0.520467        -0.085229
 H         4.297604         1.839247        -0.999416
 H         1.791139         2.059536        -0.618611
