19
Iteration:  4728charge 0 multiplicity 1
 C         0.058448         0.539198         0.291370
 C         1.477348         0.004675         0.068396
 C         2.003087        -1.020182         1.071716
 O         3.332537        -1.429872         0.638170
 C         4.425719        -0.779114         1.206111
 C         4.628688         0.610157         0.591026
 C         3.876389         1.249057        -0.345313
 C         2.472038         0.894886        -0.585412
 O         2.063069        -0.255897        -1.252316
 H        -0.752899        -0.246565         0.509565
 H        -0.025730         1.288587         1.144032
 H        -0.399829         1.019991        -0.616374
 H         1.897979        -0.708005         2.154291
 H         1.401578        -1.960213         0.673760
 H         4.096490        -0.603310         2.303181
 H         5.321438        -1.406272         1.097023
 H         5.610978         1.095533         1.022753
 H         4.190798         2.206960        -0.761567
 H         1.981532         1.771256        -1.242765
