19
Iteration:   958charge 0 multiplicity 1
 C         0.172359         0.357644         0.264216
 C         1.572243         0.036539        -0.011303
 C         2.082988        -0.666656         1.246967
 O         3.269751        -1.440708         0.998109
 C         4.361086        -0.632117         1.312110
 C         4.673516         0.541658         0.444313
 C         3.833011         1.184192        -0.555358
 C         2.423631         0.884253        -0.869035
 O         1.944006        -0.450674        -1.250171
 H        -0.009485         1.252084         0.911616
 H        -0.293550         0.582711        -0.741958
 H        -0.443978        -0.467058         0.689080
 H         2.193158         0.106481         2.068461
 H         1.404047        -1.374995         1.736276
 H         4.440826        -0.300099         2.332076
 H         5.241110        -1.282844         1.190360
 H         5.583222         1.052687         0.500677
 H         4.173821         2.047346        -1.165124
 H         1.809175         1.640742        -1.432348
