19
Iteration:  4405charge 0 multiplicity 1
 C         0.047754         0.023766         0.174308
 C         1.521996         0.078781         0.024646
 C         2.022320        -0.905539         1.020673
 O         3.290109        -1.505605         0.890961
 C         4.447445        -0.769228         1.310851
 C         4.805054         0.293360         0.387010
 C         3.956039         1.192628        -0.266261
 C         2.432282         1.241511        -0.498592
 O         1.835574         0.147787        -1.414005
 H        -0.466302        -0.682534         0.895337
 H        -0.257518         0.936152         0.601248
 H        -0.532524        -0.056533        -0.814745
 H         1.916778        -0.167677         1.918870
 H         1.259474        -1.740279         1.342817
 H         4.622216        -0.406643         2.389295
 H         5.268237        -1.549989         1.380392
 H         5.827812         0.755626         0.340060
 H         4.446986         2.001512        -0.799080
 H         2.052106         2.254587        -0.685476
