19
Iteration:  4403charge 0 multiplicity 1
 C         0.044133         0.022361         0.172709
 C         1.520858         0.083163         0.004153
 C         2.023697        -0.920271         1.041599
 O         3.308353        -1.499253         0.901523
 C         4.437134        -0.781211         1.304857
 C         4.798199         0.303349         0.382538
 C         3.955736         1.183965        -0.277392
 C         2.437662         1.266691        -0.506499
 O         1.834592         0.149161        -1.404407
 H        -0.513221        -0.759736         0.882191
 H        -0.291491         1.007432         0.598468
 H        -0.547194        -0.089029        -0.809345
 H         1.969611        -0.101701         1.864469
 H         1.306350        -1.680457         1.281207
 H         4.620590        -0.454095         2.445569
 H         5.274200        -1.667042         1.372505
 H         5.771116         0.730332         0.407825
 H         4.386442         1.990968        -0.793577
 H         2.071227         2.211921        -0.635128
