19
Iteration:   583charge 0 multiplicity 1
 C         0.075206         0.335927         0.205644
 C         1.528582        -0.025557        -0.032377
 C         2.094416        -0.731370         1.219618
 O         3.322315        -1.414679         1.395913
 C         4.544846        -0.719723         1.268853
 C         4.675141         0.524015         0.296648
 C         3.806931         1.145640        -0.506880
 C         2.375777         0.903204        -0.818295
 O         1.863467        -0.249601        -1.514018
 H        -0.054177         0.853373         1.272627
 H        -0.214244         1.113672        -0.469765
 H        -0.558745        -0.625606         0.096002
 H         1.978994        -0.039041         2.089122
 H         1.452394        -1.541921         1.601218
 H         4.831945        -0.225490         2.302147
 H         5.474385        -1.434024         1.146019
 H         5.690776         0.856920         0.363435
 H         4.367840         2.067868        -1.063142
 H         1.786931         1.884010        -1.007198
