19
Iteration:  2590
 C         0.074294         0.415686         0.189510
 C         1.553601        -0.006701         0.082115
 C         1.984562        -1.045863         1.150091
 O         3.357325        -1.540761         1.009758
 C         4.381685        -0.582243         1.280764
 C         4.736617         0.560534         0.279732
 C         3.892015         1.234312        -0.569902
 C         2.436643         1.022918        -0.578285
 O         1.925583        -0.220555        -1.248367
 H        -0.496561         0.013784         0.945835
 H         0.065227         1.536666         0.334818
 H        -0.391468         0.072275        -0.705016
 H         1.817708        -0.578871         2.182475
 H         1.381597        -2.005989         1.126895
 H         4.091288        -0.090404         2.272779
 H         5.374618        -1.179421         1.568041
 H         5.815775         0.738339         0.211400
 H         4.277886         2.082226        -1.123109
 H         1.772634         1.877323        -0.963756
