19
Iteration:  2577charge 0 multiplicity 1
 C         0.077791         0.429522         0.270340
 C         1.587226         0.016086         0.078820
 C         2.040892        -0.961002         1.113616
 O         3.334852        -1.611520         1.053408
 C         4.432187        -0.574297         1.305940
 C         4.633113         0.575083         0.302066
 C         3.845226         1.252933        -0.460803
 C         2.417038         0.943763        -0.703457
 O         1.960871        -0.246693        -1.332790
 H        -0.437441        -0.191282         1.010629
 H        -0.045952         1.552660         0.610992
 H        -0.420344         0.493575        -0.796207
 H         1.895152        -0.448763         2.117442
 H         1.235911        -1.717824         0.970709
 H         4.322342        -0.085305         2.380777
 H         5.379716        -1.270820         1.242723
 H         5.757540         0.861172         0.188466
 H         4.246790         1.952427        -1.156333
 H         1.880716         1.863840        -0.935505
