19
Iteration:  2036
 C        -0.039476         0.177596         0.123230
 C         1.534551         0.018636        -0.011949
 C         2.153916        -0.603187         1.274703
 O         3.302931        -1.433030         1.187547
 C         4.505750        -0.623820         1.361392
 C         4.678518         0.410281         0.278729
 C         3.791595         1.008626        -0.558648
 C         2.344998         1.018642        -0.649040
 O         1.977762        -0.155302        -1.402437
 H        -0.109150         0.642641         1.165104
 H        -0.457336         0.993426        -0.519759
 H        -0.505460        -0.855294         0.284117
 H         2.144589         0.209840         2.073692
 H         1.576751        -1.445366         1.584666
 H         4.780200        -0.359420         2.331080
 H         5.320700        -1.368320         1.006899
 H         5.818517         0.707262         0.145349
 H         4.309425         1.662944        -1.287753
 H         1.932890         1.818712        -1.123547
