19
Iteration:  3896charge 0 multiplicity 1
 C         0.077501         0.482345         0.326510
 C         1.471053         0.056871         0.002791
 C         2.114036        -0.848319         1.066709
 O         3.368163        -1.367241         0.699746
 C         4.546661        -0.784847         1.255576
 C         4.618792         0.636733         0.678972
 C         3.852626         1.135320        -0.290941
 C         2.421967         0.843490        -0.794105
 O         1.846121        -0.341973        -1.285117
 H        -0.170702         1.216272        -0.402537
 H        -0.701490        -0.223090         0.170486
 H        -0.048029         0.840849         1.364811
 H         2.196478        -0.371077         2.111452
 H         1.487364        -1.831466         1.267542
 H         4.543932        -0.828115         2.343855
 H         5.305551        -1.407467         0.721761
 H         5.534308         1.212714         0.924036
 H         3.991338         2.210234        -0.597832
 H         2.144246         1.738166        -1.452250
