19
Iteration:  3688
 C         0.070855         0.652500         0.334368
 C         1.532915         0.060671         0.128330
 C         2.083405        -1.105085         0.991635
 O         3.411953        -1.435329         0.646557
 C         4.427304        -0.663473         1.308955
 C         4.653334         0.711206         0.590191
 C         3.819467         1.095181        -0.387140
 C         2.408291         0.846944        -0.627418
 O         1.905877        -0.317805        -1.301610
 H        -0.019271         1.489196        -0.193338
 H        -0.842420         0.019972        -0.048416
 H         0.042385         0.646281         1.401432
 H         2.037715        -0.784541         2.072403
 H         1.558591        -2.117264         0.841449
 H         4.049748        -0.546196         2.420977
 H         5.363046        -1.164700         1.237700
 H         5.560217         1.171850         0.718227
 H         4.274199         1.971530        -0.882793
 H         1.890951         1.658260        -1.123287
