19
Iteration:  3828
 C         0.069026         0.357372         0.163193
 C         1.544004         0.035981         0.061150
 C         2.002899        -0.923359         1.146459
 O         3.297431        -1.530789         0.898855
 C         4.458054        -0.693941         1.180897
 C         4.701885         0.520437         0.266824
 C         3.782354         1.275317        -0.325911
 C         2.376448         1.062845        -0.509551
 O         2.070755        -0.217270        -1.199654
 H        -0.388051         0.797257        -0.774681
 H        -0.395506        -0.551470         0.295493
 H        -0.090052         0.899371         1.086937
 H         1.953946        -0.332927         2.152624
 H         1.251219        -1.745385         1.154091
 H         4.325239        -0.409844         2.164765
 H         5.310418        -1.428231         1.028521
 H         5.688833         0.683090         0.009977
 H         4.195552         2.102910        -0.948546
 H         1.989941         1.811634        -1.107567
