19
Iteration:  1071
 C         0.073763         0.297642         0.088889
 C         1.555890         0.143684         0.122734
 C         2.008956        -0.700606         1.347841
 O         3.171149        -1.438846         1.189691
 C         4.333601        -0.663543         1.104791
 C         4.640372         0.492042         0.107456
 C         3.819152         1.295864        -0.512077
 C         2.428720         0.937900        -0.793162
 O         2.239762        -0.485327        -1.100755
 H        -0.205432         0.684211         1.192059
 H        -0.227656         1.069910        -0.669064
 H        -0.399755        -0.725226        -0.168841
 H         2.095374         0.105893         2.201010
 H         1.203258        -1.394312         1.612204
 H         4.505166        -0.233454         2.090126
 H         5.118030        -1.538111         0.873827
 H         5.751832         0.677361         0.259739
 H         4.299510         2.248970        -0.936076
 H         1.907400         1.720841        -1.424067
