19
Iteration:  1641charge 0 multiplicity 1
 C        -0.067743         0.275643         0.225552
 C         1.463051         0.014526         0.034816
 C         2.130757        -0.694979         1.147195
 O         3.335417        -1.398468         1.065883
 C         4.568237        -0.560192         1.414397
 C         4.751747         0.459205         0.389016
 C         3.930901         1.007510        -0.580152
 C         2.389224         0.915512        -0.730311
 O         1.821381        -0.280322        -1.379972
 H        -0.138026         1.370061         0.566884
 H        -0.490320         0.305766        -0.766003
 H        -0.426040        -0.319240         0.979364
 H         2.187222         0.030208         1.980516
 H         1.394294        -1.389280         1.611301
 H         4.327213        -0.021668         2.359554
 H         5.359667        -1.342172         1.395549
 H         5.748384         0.816657         0.493591
 H         4.513627         1.915762        -1.149917
 H         1.962354         1.951672        -1.214609
