19
Iteration:  2856
 C        -0.044303         0.320458         0.158586
 C         1.474633         0.067938         0.115938
 C         2.011047        -0.862489         1.159592
 O         3.316117        -1.502092         0.896599
 C         4.502798        -0.789206         1.001267
 C         4.691850         0.533309         0.390864
 C         3.843344         1.297660        -0.251746
 C         2.415294         1.051157        -0.645170
 O         2.071642        -0.250444        -1.189330
 H        -0.193576         0.783749        -0.807532
 H        -0.658008        -0.521947         0.284420
 H        -0.309549         1.020023         0.892694
 H         2.113582        -0.318364         2.089495
 H         1.211162        -1.613677         1.404220
 H         4.702465        -0.606088         2.156562
 H         5.276198        -1.560458         0.792291
 H         5.744971         0.913272         0.677053
 H         4.219898         2.221745        -0.659117
 H         1.900433         1.767787        -1.256297
