19
Iteration:  3861
 C         0.150758         0.422343         0.334197
 C         1.549345         0.006845        -0.004361
 C         2.100168        -0.884673         1.135805
 O         3.310690        -1.617025         0.918215
 C         4.448441        -0.758782         1.179039
 C         4.598156         0.643812         0.556462
 C         3.791233         1.273427        -0.364377
 C         2.443657         0.956029        -0.795855
 O         1.905617        -0.233700        -1.377938
 H        -0.239632         1.199838        -0.354110
 H        -0.406841        -0.395355         0.348929
 H         0.136883         0.886336         1.313745
 H         2.216481        -0.173049         2.002145
 H         1.328322        -1.633747         1.423462
 H         4.600092        -0.669065         2.247622
 H         5.392200        -1.329273         0.962670
 H         5.448911         1.184527         0.837598
 H         4.041597         2.351374        -0.574574
 H         1.981641         1.744351        -1.312562
