19
Iteration:  1059charge 0 multiplicity 1
 C         0.078193         0.331388         0.101851
 C         1.622587         0.046044         0.081132
 C         1.990705        -0.653718         1.349683
 O         3.123241        -1.500167         1.147943
 C         4.338226        -0.675568         1.083996
 C         4.589887         0.451778         0.126089
 C         3.823589         1.378148        -0.581995
 C         2.452679         0.956926        -0.785534
 O         2.291134        -0.465274        -0.976458
 H        -0.404964         0.640250         1.145715
 H        -0.227154         1.093692        -0.594244
 H        -0.551264        -0.611775        -0.169727
 H         2.111233        -0.060267         2.361874
 H         1.148110        -1.355884         1.522737
 H         4.516195        -0.185184         2.067156
 H         5.275270        -1.388168         1.020905
 H         5.638488         0.898723         0.170996
 H         4.267291         2.400365        -1.125873
 H         1.797553         1.457894        -1.591602
