19
Iteration:   703
 C         0.109619         0.468453         0.177024
 C         1.595061         0.002357        -0.003888
 C         2.136794        -0.800859         1.172527
 O         3.366570        -1.480030         1.240047
 C         4.499073        -0.619539         1.356113
 C         4.615061         0.575345         0.363783
 C         3.783739         1.115650        -0.533748
 C         2.389450         0.873074        -0.769773
 O         1.808338        -0.351860        -1.419953
 H         0.075695         1.466276         0.704473
 H        -0.231942         0.647201        -0.834166
 H        -0.454461        -0.382207         0.630974
 H         2.051201         0.062957         1.947343
 H         1.373014        -1.638302         1.538337
 H         4.658987        -0.249669         2.361863
 H         5.292022        -1.273294         1.187558
 H         5.635006         0.974674         0.394119
 H         4.375479         1.922601        -1.103133
 H         1.821295         1.867212        -1.051011
