19
Iteration:   106
 C        -0.123250         0.138943         0.204954
 C         1.468821         0.168864         0.077549
 C         2.187797        -0.470987         1.310302
 O         3.201655        -1.388920         0.914338
 C         4.460029        -0.766926         1.177394
 C         4.762682         0.525324         0.403459
 C         3.997533         1.149858        -0.469986
 C         2.520395         0.905573        -0.875933
 O         1.871134        -0.408461        -1.169945
 H        -0.398484         0.744365         1.201474
 H        -0.534725         0.560979        -0.658683
 H        -0.398646        -1.014509         0.256592
 H         2.574777         0.290383         1.955698
 H         1.433639        -1.034256         1.921917
 H         4.461642        -0.492821         2.230740
 H         5.387023        -1.573021         1.032712
 H         5.623168         1.090965         0.845220
 H         4.320686         2.133016        -1.016089
 H         2.017832         1.713595        -1.574483
