19
Iteration:  3074
 C         0.266173         0.604697         0.441437
 C         1.541940         0.005075         0.037375
 C         2.093284        -1.171882         0.916451
 O         3.443180        -1.558838         0.897268
 C         4.342724        -0.678093         1.390466
 C         4.592535         0.572670         0.470077
 C         3.798674         1.253594        -0.399570
 C         2.405180         0.972474        -0.720395
 O         1.844185        -0.214723        -1.407755
 H        -0.090483         1.372543        -0.404952
 H        -0.676356        -0.099987         0.615241
 H         0.537894         1.204801         1.428993
 H         1.741834        -1.045378         1.900619
 H         1.655324        -1.975156         0.370418
 H         4.016275        -0.131261         2.427347
 H         5.230090        -1.267433         1.508694
 H         5.546084         1.014150         0.649078
 H         4.045930         2.266683        -0.827236
 H         1.856644         1.799270        -1.098699
