19
Iteration:  1362
 C         0.083398         0.406593         0.390714
 C         1.487695         0.073249         0.000272
 C         2.063441        -0.812202         1.089003
 O         3.345363        -1.400265         0.970866
 C         4.366082        -0.428605         1.478150
 C         4.739893         0.554724         0.415820
 C         3.936785         0.998633        -0.640093
 C         2.509080         0.874062        -0.837211
 O         1.817075        -0.427462        -1.289944
 H         0.109451         0.981001         1.298383
 H        -0.465451         0.839004        -0.421962
 H        -0.456384        -0.626465         0.425214
 H         1.967255        -0.354243         2.146154
 H         1.290626        -1.551159         1.186464
 H         3.917333         0.134516         2.418886
 H         5.255324        -0.957109         1.790741
 H         5.805258         0.869722         0.382664
 H         4.524736         1.755127        -1.295067
 H         2.159974         1.621667        -1.550092
