19
Iteration:  1141
 C         0.044639         0.344788         0.206066
 C         1.520181         0.078972         0.011286
 C         2.133140        -0.653464         1.224013
 O         3.339517        -1.365303         0.975575
 C         4.465897        -0.664404         1.397104
 C         4.694404         0.501860         0.454906
 C         3.844296         1.101378        -0.520612
 C         2.395586         0.849233        -0.865099
 O         1.873415        -0.412350        -1.294864
 H        -0.124369         1.122859         1.007402
 H        -0.426223         0.766690        -0.787474
 H        -0.495134        -0.598707         0.464613
 H         2.340898         0.232100         1.946115
 H         1.379662        -1.309768         1.758024
 H         4.461458        -0.250474         2.394680
 H         5.354888        -1.402013         1.248470
 H         5.646986         1.030351         0.591749
 H         4.313846         1.994162        -0.897822
 H         1.905963         1.620021        -1.472218
