19
Iteration:  4209charge 0 multiplicity 1
 C         0.014203         0.335748         0.085648
 C         1.500460         0.013423         0.197316
 C         1.981746        -1.088850         1.157303
 O         3.307756        -1.582799         0.834678
 C         4.300866        -0.585593         1.215661
 C         4.733681         0.436149         0.201315
 C         3.941048         1.303567        -0.476857
 C         2.476640         1.098162        -0.453508
 O         2.088971        -0.094511        -1.095820
 H        -0.373726        -0.309307        -0.743168
 H        -0.514386         0.180477         0.976406
 H        -0.172749         1.394693        -0.264997
 H         1.895363        -0.877545         2.198179
 H         1.367419        -1.992545         0.821548
 H         3.874658        -0.048675         2.070544
 H         5.217496        -1.067635         1.496131
 H         5.887858         0.577207         0.146009
 H         4.247388         2.223920        -0.935073
 H         1.792654         2.077120        -0.663998
