19
Iteration:  3481
 C         0.181088         0.561702         0.348256
 C         1.551191        -0.042567         0.007994
 C         2.041202        -0.994134         1.079669
 O         3.347482        -1.546116         0.892308
 C         4.535267        -0.723388         1.229852
 C         4.586520         0.646221         0.541121
 C         3.802262         1.224026        -0.388695
 C         2.308314         0.928360        -0.728225
 O         1.938150        -0.221127        -1.373207
 H         0.113973         1.466865        -0.072567
 H        -0.641947        -0.055199         0.087714
 H         0.178979         0.553845         1.395822
 H         1.829395        -0.589383         2.108756
 H         1.325164        -1.866788         0.966430
 H         4.752654        -0.789922         2.416334
 H         5.428501        -1.477162         0.861637
 H         5.502121         1.195941         0.881089
 H         4.081752         2.203538        -0.883398
 H         1.733249         1.899491        -1.115379
