19
Iteration:  1128charge 0 multiplicity 1
 C        -0.082161         0.314009         0.144632
 C         1.442764         0.063545         0.010735
 C         2.180381        -0.565546         1.279471
 O         3.356515        -1.404825         1.036072
 C         4.587920        -0.658403         1.363060
 C         4.704300         0.541046         0.441952
 C         3.849295         1.005430        -0.421006
 C         2.442775         0.867482        -0.861110
 O         1.822900        -0.357810        -1.378447
 H        -0.405531         1.066563         1.006309
 H        -0.430959         0.747989        -0.915925
 H        -0.642326        -0.640137         0.359276
 H         2.455662         0.298697         2.047852
 H         1.467081        -1.202599         1.802561
 H         4.531404        -0.536332         2.416578
 H         5.529446        -1.415742         1.250096
 H         5.669759         1.067231         0.434749
 H         4.164161         1.670689        -1.065434
 H         2.228018         1.800868        -1.312706
