19
Iteration:   152
 C        -0.057533         0.414702         0.048602
 C         1.448909         0.012810         0.100450
 C         2.079120        -0.582215         1.364691
 O         3.254085        -1.389783         1.156311
 C         4.566371        -0.780599         1.062049
 C         4.717332         0.469165         0.257572
 C         3.784864         1.243327        -0.494488
 C         2.335110         0.909114        -0.777843
 O         2.145111        -0.472156        -1.141075
 H        -0.397616         0.513075         1.148978
 H        -0.238981         1.321306        -0.538644
 H        -0.672891        -0.431256        -0.440999
 H         2.255458         0.175795         2.132775
 H         1.365671        -1.285374         1.810838
 H         4.921747        -0.487717         2.057469
 H         5.293995        -1.660346         0.720967
 H         5.631470         0.973339         0.364863
 H         4.066946         2.216849        -0.733708
 H         1.844417         1.682905        -1.448545
