19
Iteration:  4525
 C         0.184743         0.379396         0.419963
 C         1.562915         0.054484        -0.037830
 C         2.085334        -1.014969         0.941983
 O         3.422517        -1.456505         0.816805
 C         4.362439        -0.693035         1.425129
 C         4.617035         0.585354         0.665139
 C         3.893062         1.030693        -0.418175
 C         2.466139         0.934182        -0.745731
 O         1.758633        -0.044886        -1.475508
 H        -0.423105        -0.511096         0.799656
 H         0.216739         0.938015         1.376298
 H        -0.385733         1.097293        -0.301489
 H         1.828764        -0.621029         1.957824
 H         1.385062        -1.821250         0.796531
 H         4.076716        -0.586257         2.436730
 H         5.296688        -1.363205         1.624397
 H         5.605553         1.137223         0.710361
 H         4.300200         1.983047        -0.882739
 H         2.085476         1.930718        -0.961405
