19
Iteration:   188charge 0 multiplicity 1
 C         0.176953         0.391495         0.076081
 C         1.629162         0.015409         0.067642
 C         2.081286        -0.690794         1.410834
 O         3.259427        -1.414089         1.225160
 C         4.476114        -0.733529         1.067686
 C         4.553563         0.520351         0.246450
 C         3.808300         1.279256        -0.513441
 C         2.344471         0.954294        -0.747843
 O         1.964002        -0.473725        -1.227539
 H        -0.222447         0.754334         0.970555
 H        -0.015119         1.283649        -0.730838
 H        -0.370234        -0.462647        -0.226025
 H         2.091276         0.097514         2.232873
 H         1.374204        -1.496168         1.580497
 H         4.831447        -0.468300         2.116311
 H         5.186607        -1.423629         0.706059
 H         5.620580         0.759575         0.380684
 H         4.286519         2.200974        -0.914589
 H         1.745692         1.586109        -1.314551
