19
Iteration:   372charge 0 multiplicity 1
 C         0.021114         0.306454         0.184986
 C         1.485832         0.071112         0.141645
 C         2.079052        -0.890727         1.246127
 O         3.383461        -1.164988         0.935911
 C         4.457678        -0.440248         1.383690
 C         4.846809         0.443372         0.273885
 C         3.964107         0.881580        -0.613766
 C         2.462852         0.841135        -0.681760
 O         1.682794        -0.280998        -1.246126
 H        -0.355215         0.853877         0.998903
 H        -0.299852         0.998278        -0.742219
 H        -0.464235        -0.654316         0.150883
 H         1.825710        -0.426061         2.291664
 H         1.520037        -1.880428         1.222642
 H         4.189083         0.209214         2.230787
 H         5.259858        -1.168219         1.858430
 H         5.912570         0.776632         0.172801
 H         4.313984         1.627698        -1.175689
 H         2.171092         1.723108        -1.222151
