19
Iteration:  1701charge 0 multiplicity 1
 C         0.142641         0.608807         0.281848
 C         1.542696        -0.038014         0.091348
 C         2.048302        -1.078929         1.136019
 O         3.353701        -1.497269         1.025747
 C         4.322456        -0.344485         1.330337
 C         4.683261         0.568115         0.272659
 C         3.884057         1.095507        -0.622262
 C         2.415217         0.919193        -0.667833
 O         1.962090        -0.438195        -1.223481
 H         0.227574         1.551412         0.795918
 H        -0.300702         0.914094        -0.738263
 H        -0.800995         0.037978         0.669598
 H         1.711190        -0.651350         2.116214
 H         1.384571        -1.947323         0.802416
 H         3.949673         0.099739         2.227520
 H         5.233267        -0.726837         1.741559
 H         5.788009         0.917670         0.262091
 H         4.255414         1.718247        -1.340206
 H         1.986431         1.749064        -1.193406
