19
Iteration:  4747charge 0 multiplicity 1
 C         0.042289         0.403307         0.238996
 C         1.535211         0.051206         0.031552
 C         1.986607        -1.048381         1.010247
 O         3.288022        -1.495208         0.760130
 C         4.460375        -0.652510         1.238720
 C         4.801693         0.545000         0.528159
 C         3.909615         1.239936        -0.198349
 C         2.446636         0.981545        -0.587507
 O         1.911774        -0.187682        -1.337511
 H        -0.554474        -0.347530         0.682329
 H        -0.034704         1.458200         0.691155
 H        -0.525984         0.492294        -0.658702
 H         1.854644        -0.504402         1.958904
 H         1.322701        -1.877350         1.080123
 H         4.259130        -0.616414         2.310602
 H         5.202168        -1.437852         0.983248
 H         5.802129         0.917321         0.595584
 H         4.299257         2.146904        -0.660000
 H         1.937306         1.925747        -0.853022
