19
Iteration:  2543charge 0 multiplicity 1
 C         0.120810         0.370225         0.353264
 C         1.536613         0.032204        -0.030171
 C         2.070881        -0.791525         1.113986
 O         3.266273        -1.455210         0.943172
 C         4.528801        -0.662506         1.300542
 C         4.653595         0.555052         0.466577
 C         3.820643         1.186104        -0.419785
 C         2.439964         0.897632        -0.825936
 O         1.902375        -0.336401        -1.343872
 H        -0.665082        -0.448843         0.397403
 H         0.232687         0.862597         1.362977
 H        -0.408473         1.121909        -0.414155
 H         2.006831        -0.131009         2.048175
 H         1.310606        -1.590436         1.283191
 H         4.552039        -0.493938         2.465472
 H         5.465389        -1.241716         1.024978
 H         5.620613         1.159713         0.778293
 H         4.177591         2.138676        -0.806283
 H         1.896915         1.706396        -1.199734
