19
Iteration:  4224
 C         0.072295         0.303796         0.136687
 C         1.585473         0.054688         0.157227
 C         1.960764        -1.170024         1.131784
 O         3.281936        -1.478473         0.887616
 C         4.376275        -0.649258         1.238217
 C         4.692193         0.458245         0.286218
 C         3.895858         1.325617        -0.391995
 C         2.420342         1.111222        -0.517378
 O         2.044837        -0.077547        -1.242030
 H        -0.431883        -0.536580        -0.279388
 H        -0.410943         0.442364         1.163118
 H        -0.089931         1.280989        -0.367296
 H         1.779041        -0.761660         2.192344
 H         1.340995        -1.987970         1.014168
 H         4.196680        -0.234484         2.186041
 H         5.128508        -1.484319         1.220343
 H         5.798606         0.574034         0.090103
 H         4.440542         1.936923        -1.122609
 H         1.930693         1.936381        -0.871713
