19
Iteration:  1658
 C        -0.021869         0.323869         0.344272
 C         1.502874         0.057356        -0.071553
 C         2.057219        -0.762405         1.157079
 O         3.376970        -1.432407         1.094904
 C         4.374048        -0.542568         1.388910
 C         4.775610         0.503326         0.360344
 C         3.955409         1.028567        -0.545304
 C         2.495426         0.914922        -0.827386
 O         1.811964        -0.271106        -1.354873
 H        -0.294269         1.269633         0.809207
 H        -0.642122         0.144310        -0.623359
 H        -0.164849        -0.558963         1.106594
 H         2.166580        -0.070774         2.058033
 H         1.411090        -1.650412         1.338399
 H         4.303920        -0.031925         2.365217
 H         5.316359        -1.162415         1.606469
 H         5.793431         1.024922         0.341242
 H         4.268070         1.756057        -1.200156
 H         2.097237         1.728555        -1.282608
