19
Iteration:  2111charge 0 multiplicity 1
 C         0.115422         0.594358         0.235821
 C         1.498926         0.005508         0.113702
 C         1.998393        -0.982786         1.177218
 O         3.370170        -1.358067         0.783150
 C         4.346177        -0.416923         1.346691
 C         4.671167         0.608220         0.393174
 C         3.895714         1.077737        -0.577782
 C         2.431917         0.829556        -0.678960
 O         1.948761        -0.536658        -1.173876
 H         0.095163         1.329782         1.176523
 H         0.052449         1.199931        -0.711045
 H        -0.695915        -0.026457         0.322665
 H         1.935733        -0.566325         2.218214
 H         1.481305        -1.955760         1.185528
 H         4.125768        -0.073528         2.467119
 H         5.345212        -1.021701         1.420719
 H         5.805329         0.860515         0.477055
 H         4.347212         1.739049        -1.338836
 H         1.856484         1.703577        -1.048275
