19
Iteration:  4597
 C         0.014637         0.296508         0.082615
 C         1.503982         0.046269         0.127085
 C         2.017399        -1.098427         1.095593
 O         3.260376        -1.487335         0.874740
 C         4.289674        -0.547945         1.219086
 C         4.753613         0.407795         0.146997
 C         3.959805         1.293620        -0.430191
 C         2.471661         1.100679        -0.331211
 O         2.124585        -0.116393        -1.108824
 H        -0.386902        -0.229191        -0.767800
 H        -0.516586        -0.210212         0.861869
 H        -0.227559         1.369468         0.140834
 H         1.778005        -0.874647         2.127677
 H         1.271420        -1.949605         0.877870
 H         3.953692         0.045041         2.141695
 H         4.969446        -1.193583         1.721781
 H         5.755569         0.278301        -0.351203
 H         4.240676         1.995763        -1.164522
 H         1.830692         1.926456        -0.714678
