19
Iteration:  1424charge 0 multiplicity 1
 C         0.042117         0.528582         0.136899
 C         1.504528        -0.004208         0.048440
 C         2.046591        -0.918633         1.293600
 O         3.316857        -1.403860         1.132782
 C         4.490603        -0.560569         1.294539
 C         4.716188         0.525337         0.267925
 C         3.828379         1.221013        -0.554159
 C         2.418502         0.868529        -0.726121
 O         1.955059        -0.434680        -1.254655
 H        -0.209118         1.578716         0.497059
 H        -0.240390         0.641636        -0.910990
 H        -0.692561        -0.048670         0.771610
 H         1.888420        -0.346170         2.219135
 H         1.432302        -1.886714         1.262104
 H         4.427375        -0.068036         2.296045
 H         5.411839        -1.400098         1.254320
 H         5.772784         0.926710         0.172940
 H         4.320455         1.967220        -1.305156
 H         1.921131         1.595399        -1.390995
