19
Iteration:   563
 C         0.124476         0.378604         0.230313
 C         1.561597        -0.022218        -0.012242
 C         1.977286        -0.854252         1.236933
 O         3.293893        -1.436955         1.313234
 C         4.406469        -0.578787         1.216490
 C         4.676794         0.506753         0.206999
 C         3.834289         1.193367        -0.558393
 C         2.419124         0.953983        -0.737511
 O         1.991160        -0.333511        -1.351828
 H        -0.008965         1.119728         1.095703
 H        -0.320640         0.925177        -0.570134
 H        -0.529450        -0.544120         0.422540
 H         1.965205        -0.185244         2.137575
 H         1.303596        -1.670496         1.391157
 H         4.688255        -0.290557         2.231281
 H         5.364560        -1.268637         0.934461
 H         5.675354         0.842016         0.384463
 H         4.287525         2.176233        -1.027452
 H         1.956804         1.759603        -1.327994
