19
Iteration:  2687charge 0 multiplicity 1
 C         0.229973         0.495745         0.423362
 C         1.578711        -0.070600        -0.022792
 C         2.052267        -1.131115         0.940083
 O         3.453773        -1.594225         1.029033
 C         4.360696        -0.550527         1.357616
 C         4.548936         0.550348         0.485121
 C         3.813268         1.213592        -0.471734
 C         2.468770         1.033431        -0.721752
 O         1.800516        -0.137268        -1.413254
 H         0.231816         1.590727         0.497314
 H        -0.561280         0.592268        -0.478840
 H        -0.088091         0.048062         1.504974
 H         1.703505        -0.922476         1.926138
 H         1.515053        -2.045984         0.661157
 H         4.102107        -0.014479         2.289838
 H         5.218096        -1.116839         1.586095
 H         5.598358         0.770233         0.440467
 H         4.489333         1.848788        -1.089078
 H         2.035052         1.930633        -1.033803
