19
Iteration:  4082charge 0 multiplicity 1
 C         0.145352         0.671237         0.464855
 C         1.548857        -0.077424         0.047743
 C         2.002901        -1.189239         0.921604
 O         3.360619        -1.486526         0.705900
 C         4.247751        -0.526706         1.354039
 C         4.660564         0.647151         0.553928
 C         3.936023         1.274095        -0.448890
 C         2.441522         0.867080        -0.649320
 O         1.981560        -0.333119        -1.289579
 H         0.050462         1.645517         0.002005
 H        -0.697493         0.064404         0.087069
 H         0.084854         0.760479         1.629647
 H         1.711366        -0.994244         1.998129
 H         1.457951        -2.094313         0.685832
 H         3.787653        -0.219009         2.260733
 H         5.212543        -1.141020         1.573740
 H         5.795933         0.932724         0.521608
 H         4.398788         1.864610        -1.224499
 H         1.876753         1.767710        -1.091290
