19
Iteration:  2926
 C         0.041257         0.390190         0.325852
 C         1.464172         0.109084         0.006375
 C         2.096268        -0.744124         1.172167
 O         3.279010        -1.530031         0.828350
 C         4.518256        -0.801054         1.080529
 C         4.700038         0.590957         0.576070
 C         3.779383         1.242349        -0.248362
 C         2.419647         0.926870        -0.811364
 O         2.007936        -0.324864        -1.317079
 H        -0.206605         1.358265         0.007765
 H        -0.537692        -0.366399        -0.184292
 H        -0.199307         0.240658         1.362674
 H         2.149053        -0.125979         2.018273
 H         1.386948        -1.517777         1.427607
 H         4.682269        -0.740735         2.275588
 H         5.388821        -1.508243         0.753892
 H         5.495687         1.162820         0.986932
 H         4.063656         2.289534        -0.562786
 H         1.903141         1.781345        -1.449521
