19
Iteration:  2206charge 0 multiplicity 1
 C         0.110201         0.388626         0.216449
 C         1.559724        -0.044093         0.088770
 C         1.980758        -1.044425         1.161383
 O         3.394235        -1.473311         1.200301
 C         4.271036        -0.296562         1.354963
 C         4.778429         0.412052         0.091455
 C         3.970088         1.119744        -0.669257
 C         2.429478         0.948881        -0.593876
 O         1.865858        -0.233265        -1.300765
 H         0.230558         0.966305         1.146571
 H        -0.130866         0.989932        -0.662636
 H        -0.628333        -0.538780         0.470176
 H         1.739150        -0.587458         2.196582
 H         1.387863        -1.986152         1.039344
 H         3.678870         0.492340         1.977315
 H         5.122410        -0.533259         1.959206
 H         5.883925         0.467909         0.061303
 H         4.477686         1.881891        -1.281775
 H         1.829406         1.807755        -1.054350
