19
Iteration:   179charge 0 multiplicity 1
 C         0.142791         0.433690         0.002575
 C         1.592730         0.017422         0.102995
 C         2.126292        -0.696409         1.377721
 O         3.301636        -1.482437         1.290590
 C         4.433723        -0.746689         1.003318
 C         4.582310         0.496620         0.230334
 C         3.740357         1.368030        -0.432969
 C         2.399992         0.954955        -0.773705
 O         1.946749        -0.505619        -1.206637
 H        -0.203080         0.703899         0.959088
 H         0.091360         1.343780        -0.698482
 H        -0.385644        -0.395909        -0.388303
 H         2.192114         0.038564         2.276243
 H         1.302474        -1.333282         1.787561
 H         4.824704        -0.278223         2.029605
 H         5.196172        -1.376418         0.778571
 H         5.669499         0.859849         0.296360
 H         4.283553         2.121401        -1.139236
 H         1.776737         1.652918        -1.313289
