19
Iteration:  3287
 C         0.033723         0.490186         0.280817
 C         1.501239         0.081710         0.132818
 C         2.089631        -0.953680         1.023571
 O         3.440794        -1.335279         0.645200
 C         4.487561        -0.713374         1.298258
 C         4.673603         0.585845         0.632757
 C         3.876996         1.108354        -0.350498
 C         2.423357         0.880371        -0.675619
 O         1.781486        -0.344595        -1.311920
 H        -0.061994         1.467166        -0.356731
 H        -0.744885        -0.280708        -0.028198
 H         0.004326         0.742959         1.455847
 H         2.148826        -0.455370         2.059210
 H         1.540045        -1.909303         0.936837
 H         4.335061        -0.559052         2.364710
 H         5.368515        -1.349830         1.152634
 H         5.630067         1.111579         0.786095
 H         4.207922         2.065548        -0.833719
 H         1.925105         1.760974        -0.945056
