19
Iteration:  1106charge 0 multiplicity 1
 C        -0.034941         0.254956         0.033761
 C         1.441431         0.019035         0.014391
 C         2.096183        -0.598509         1.244390
 O         3.335009        -1.310544         1.164860
 C         4.574178        -0.714085         1.277864
 C         4.757265         0.488866         0.394282
 C         3.915568         1.056258        -0.499131
 C         2.370821         0.947979        -0.732336
 O         1.844452        -0.355446        -1.295163
 H        -0.386954         0.886397         0.979393
 H        -0.397822         0.872333        -0.930770
 H        -0.639908        -0.692548         0.088133
 H         2.400510         0.348622         1.856995
 H         1.450233        -1.218797         1.866609
 H         4.906314        -0.607264         2.302873
 H         5.393655        -1.510567         0.862887
 H         5.767174         0.913381         0.511338
 H         4.177347         1.852766        -1.018604
 H         1.952275         1.826090        -1.186485
