19
Iteration:  2066
 C         0.097556         0.316980         0.185259
 C         1.580479         0.009907         0.043729
 C         2.064528        -0.785459         1.222126
 O         3.301212        -1.457110         1.179291
 C         4.392608        -0.597907         1.298863
 C         4.706643         0.494611         0.215374
 C         3.915323         1.216617        -0.546192
 C         2.458564         0.931965        -0.733126
 O         1.854269        -0.309941        -1.323084
 H        -0.126568         0.764076         1.263158
 H        -0.378419         0.936976        -0.605091
 H        -0.467157        -0.519325         0.294872
 H         1.958603        -0.183006         2.172654
 H         1.319901        -1.634042         1.305618
 H         4.362428        -0.059419         2.349114
 H         5.250681        -1.345598         1.320160
 H         5.769024         0.862554         0.325691
 H         4.241380         2.112830        -1.032525
 H         1.939221         1.764078        -1.284849
