19
Iteration:  2593charge 0 multiplicity 1
 C         0.090273         0.416965         0.169365
 C         1.523002         0.004519         0.082642
 C         2.006697        -1.083130         1.163815
 O         3.351197        -1.505409         0.999672
 C         4.365868        -0.584624         1.286234
 C         4.755968         0.551321         0.255825
 C         3.904967         1.205214        -0.556512
 C         2.436533         1.044974        -0.559495
 O         1.924694        -0.218085        -1.240212
 H        -0.498622         0.030228         1.027952
 H        -0.000987         1.450158         0.276815
 H        -0.383739         0.041680        -0.674193
 H         1.818804        -0.595895         2.150893
 H         1.392784        -2.015662         1.128938
 H         4.058420        -0.091081         2.177256
 H         5.336506        -1.064023         1.507946
 H         5.800155         0.702695         0.333731
 H         4.270526         2.076735        -1.150277
 H         1.741564         1.847942        -0.991561
