19
Iteration:  3084
 C         0.269773         0.685708         0.483955
 C         1.557991        -0.044847        -0.020939
 C         2.058935        -1.213838         0.873009
 O         3.440944        -1.607827         0.878467
 C         4.382566        -0.590422         1.387252
 C         4.585623         0.626212         0.491468
 C         3.767577         1.215067        -0.413712
 C         2.342353         0.945309        -0.731557
 O         1.889082        -0.213624        -1.384618
 H         0.039857         1.662470        -0.247595
 H        -0.697992        -0.013309         0.645587
 H         0.487588         1.189905         1.541375
 H         1.639217        -1.135926         1.891974
 H         1.589478        -2.132571         0.639655
 H         3.943930        -0.434686         2.459109
 H         5.301003        -1.079821         1.644528
 H         5.565258         1.059821         0.647821
 H         4.283951         2.184859        -0.685873
 H         1.935733         1.827248        -1.245083
