19
Iteration:   289charge 0 multiplicity 1
 C         0.120238         0.572203         0.231202
 C         1.515697        -0.015193         0.063190
 C         1.994839        -0.938700         1.180033
 O         3.357482        -1.460840         1.156496
 C         4.472769        -0.526301         1.224862
 C         4.696851         0.643453         0.278886
 C         3.877145         1.176862        -0.568938
 C         2.410609         0.860461        -0.777544
 O         1.881212        -0.472962        -1.188140
 H         0.095260         1.380239         1.020294
 H        -0.230116         0.989413        -0.747448
 H        -0.710479        -0.146550         0.456731
 H         1.809068        -0.491386         2.179231
 H         1.430014        -1.878302         1.027877
 H         4.546586        -0.140609         2.234811
 H         5.263648        -1.165202         1.026072
 H         5.756999         0.993592         0.439925
 H         4.342361         1.976013        -1.368376
 H         1.764839         1.611572        -1.292947
