19
Iteration:  4790charge 0 multiplicity 1
 C         0.003343         0.205598         0.213035
 C         1.569482         0.043934        -0.008042
 C         1.999577        -0.977899         1.046974
 O         3.335808        -1.666192         0.954717
 C         4.429853        -0.722147         1.294075
 C         4.650804         0.407780         0.387834
 C         3.846684         1.198149        -0.358557
 C         2.403792         1.190291        -0.518775
 O         2.038341         0.177364        -1.351265
 H        -0.220909        -0.243652         1.148543
 H        -0.327571         1.215160        -0.193686
 H        -0.315454        -0.610816        -0.398597
 H         1.928085        -0.523940         2.072599
 H         1.332898        -1.741634         1.259931
 H         4.358514        -0.249423         2.278818
 H         5.356079        -1.369157         1.383942
 H         5.638535         0.698666         0.103839
 H         4.332404         1.844086        -1.108615
 H         2.035318         2.135351        -0.840920
