19
Iteration:  4014
 C         0.031969         0.225989         0.275016
 C         1.499721        -0.004849        -0.002837
 C         2.078726        -0.953264         1.013236
 O         3.358025        -1.530640         1.013250
 C         4.458621        -0.622500         1.405080
 C         4.704367         0.379631         0.315783
 C         3.870939         1.059565        -0.421461
 C         2.385422         1.076904        -0.539593
 O         1.937136         0.141841        -1.435823
 H        -0.425038         0.985127        -0.487815
 H        -0.558021        -0.667480         0.057695
 H        -0.253641         0.510057         1.365671
 H         1.963058        -0.434774         2.024666
 H         1.507215        -1.796230         1.095512
 H         4.213490        -0.137745         2.256519
 H         5.383601        -1.261597         1.531691
 H         5.803678         0.694692         0.143177
 H         4.288449         1.776317        -1.208572
 H         1.944749         2.093774        -0.524706
