19
Iteration:  4817charge 0 multiplicity 1
 C         0.048485         0.234317         0.146187
 C         1.639905         0.009483         0.045307
 C         1.994560        -0.999992         1.003002
 O         3.298058        -1.549619         0.893713
 C         4.341310        -0.653107         1.272717
 C         4.759337         0.353937         0.277486
 C         3.943231         1.260766        -0.303575
 C         2.410979         1.162991        -0.391568
 O         1.936919         0.041489        -1.305967
 H        -0.313495         0.521050         1.167090
 H        -0.244314         0.754493        -0.702833
 H        -0.303519        -0.833610         0.141560
 H         1.754087        -0.767734         1.994445
 H         1.344723        -1.946433         0.843636
 H         4.150346        -0.103687         2.242115
 H         5.123502        -1.387771         1.410242
 H         5.844811         0.615014         0.211758
 H         4.344268         2.169782        -0.736058
 H         1.835012         2.169578        -0.533555
