19
Iteration:  4152charge 0 multiplicity 1
 C         0.045916         0.335159         0.358844
 C         1.520933         0.049816        -0.026226
 C         2.014050        -1.029903         0.972772
 O         3.376193        -1.479850         0.952844
 C         4.412979        -0.622689         1.356422
 C         4.741433         0.522089         0.446121
 C         3.924492         1.062200        -0.460901
 C         2.411942         1.039432        -0.592003
 O         1.908759        -0.050320        -1.384303
 H        -0.479439         0.273154        -0.630341
 H        -0.408341        -0.496822         0.933317
 H        -0.114487         1.271448         0.827647
 H         1.732240        -0.636526         1.930195
 H         1.362895        -2.008288         0.858532
 H         4.118754        -0.219164         2.305144
 H         5.241663        -1.289282         1.536787
 H         5.727902         0.876499         0.462639
 H         4.377733         1.754515        -1.227571
 H         1.970416         2.161484        -0.718326
