19
Iteration:  4456charge 0 multiplicity 1
 C         0.153956         0.521221         0.208875
 C         1.544005        -0.005398         0.134244
 C         2.002233        -1.196704         0.967657
 O         3.355542        -1.579282         0.712940
 C         4.300892        -0.677122         1.289921
 C         4.696367         0.597842         0.413833
 C         3.865024         1.305639        -0.314651
 C         2.427579         1.043717        -0.506481
 O         1.997919        -0.154799        -1.205463
 H        -0.485509         0.084690         1.051042
 H         0.004224         1.615451         0.447944
 H        -0.302549         0.397102        -0.802254
 H         1.636251        -1.188386         2.014058
 H         1.443386        -2.043885         0.605626
 H         4.008223        -0.300843         2.259145
 H         5.304139        -1.258152         1.457150
 H         5.735595         0.779389         0.262282
 H         4.164330         2.113046        -0.927858
 H         1.907229         1.947780        -0.768614
