19
Iteration:  4348
 C         0.095545         0.437908         0.118873
 C         1.521130        -0.025103         0.068727
 C         2.003890        -1.031909         1.080345
 O         3.313893        -1.531379         0.767986
 C         4.451666        -0.751633         1.124385
 C         4.650742         0.503964         0.437853
 C         3.822035         1.381321        -0.242866
 C         2.437938         1.059823        -0.501630
 O         2.023949        -0.202363        -1.206065
 H        -0.436007        -0.158648         0.979486
 H         0.203659         1.532891         0.380264
 H        -0.642551         0.324794        -0.715542
 H         1.947380        -0.516335         2.089140
 H         1.368590        -1.846983         0.788408
 H         4.313783        -0.464352         2.181653
 H         5.226629        -1.588809         0.938470
 H         5.651786         0.767513         0.607769
 H         4.181825         2.392582        -0.380186
 H         1.932842         1.874800        -0.851665
