19
Iteration:  2817
 C         0.133162         0.279243         0.207234
 C         1.655404        -0.038306         0.039927
 C         2.022571        -0.997625         1.157990
 O         3.222770        -1.570231         1.113198
 C         4.415547        -0.747943         1.079838
 C         4.587844         0.465473         0.228008
 C         3.825637         1.327226        -0.300597
 C         2.370788         1.120538        -0.554962
 O         2.076108        -0.053445        -1.336510
 H        -0.178571         0.449153        -0.837474
 H        -0.559304        -0.567925         0.631642
 H        -0.113548         1.308688         0.732890
 H         1.876059        -0.228052         2.058648
 H         1.407800        -1.874796         1.163731
 H         4.636761        -0.160621         2.140002
 H         5.262289        -1.429899         0.815756
 H         5.571634         0.707548         0.335451
 H         4.304527         2.231460        -0.854685
 H         1.825046         2.110060        -0.857399
