19
Iteration:   248charge 0 multiplicity 1
 C         0.097573         0.317087         0.201767
 C         1.486471         0.055759         0.105145
 C         2.147927        -0.648923         1.213949
 O         3.315883        -1.257846         0.820007
 C         4.451799        -0.623370         1.311601
 C         4.791533         0.462656         0.343733
 C         3.888296         1.031810        -0.424672
 C         2.385396         0.828260        -0.773443
 O         1.806301        -0.400217        -1.218754
 H        -0.201345         1.202225         0.876296
 H        -0.291940         0.420122        -0.717192
 H        -0.423345        -0.594056         0.686345
 H         2.202492         0.092734         2.098828
 H         1.379316        -1.391724         1.668808
 H         4.208491        -0.037038         2.288415
 H         5.224774        -1.360860         1.672122
 H         5.735154         0.976987         0.503534
 H         4.166295         1.858586        -1.051651
 H         2.001009         1.749651        -1.349782
