19
Iteration:  1874
 C         0.083927         0.363976         0.229269
 C         1.525976         0.044757         0.109612
 C         1.980309        -0.792598         1.276605
 O         3.309458        -1.398695         0.932634
 C         4.384436        -0.507098         1.306163
 C         4.780893         0.495184         0.288146
 C         3.918277         1.147319        -0.544418
 C         2.429658         0.880888        -0.787552
 O         1.938263        -0.439771        -1.209266
 H        -0.163712         1.246711         0.682846
 H        -0.240770         0.504252        -0.831237
 H        -0.524310        -0.417575         0.852272
 H         1.995969        -0.047546         2.100999
 H         1.149286        -1.594845         1.387568
 H         4.192222        -0.026239         2.268600
 H         5.209224        -1.176083         1.464716
 H         5.812240         1.005493         0.410286
 H         4.362343         1.966795        -1.090569
 H         1.949730         1.827011        -1.313484
