19
Iteration:  3537
 C         0.037393         0.356839         0.293454
 C         1.570902         0.093680         0.138753
 C         2.073682        -1.004375         1.096720
 O         3.322430        -1.358397         0.661716
 C         4.366782        -0.643412         1.290904
 C         4.710138         0.498692         0.474985
 C         3.922793         1.146184        -0.409635
 C         2.492023         0.977252        -0.657234
 O         1.863250        -0.236030        -1.236168
 H        -0.334151         1.237172        -0.115850
 H        -0.342064        -0.470162        -0.151671
 H        -0.233958         0.455552         1.328261
 H         2.066706        -0.706514         2.135844
 H         1.353807        -1.822982         1.011582
 H         4.059902        -0.198812         2.323813
 H         5.317763        -1.355738         1.381315
 H         5.715807         0.836038         0.621292
 H         4.348318         2.053709        -0.893328
 H         1.937943         1.859394        -1.153936
