19
Iteration:  3704
 C         0.185880         0.585605         0.382826
 C         1.524861        -0.045116         0.041278
 C         2.025611        -1.114804         1.010775
 O         3.396288        -1.487443         0.782301
 C         4.413961        -0.623187         1.253436
 C         4.550435         0.687463         0.593064
 C         3.874116         1.207833        -0.422569
 C         2.426280         0.880024        -0.710716
 O         1.881553        -0.289096        -1.295407
 H         0.255332         1.712105        -0.059914
 H        -0.583115         0.056321        -0.151550
 H         0.030996         0.692026         1.511293
 H         1.812596        -0.866725         2.128297
 H         1.407712        -1.967029         0.788560
 H         4.421350        -0.516714         2.310026
 H         5.345090        -1.310633         0.891156
 H         5.566134         1.166185         1.003980
 H         4.248440         2.096352        -0.927311
 H         1.978979         1.893834        -1.029458
