19
Iteration:   146
 C        -0.049750         0.343981         0.081124
 C         1.470342         0.028062         0.082496
 C         2.056183        -0.558155         1.385708
 O         3.249378        -1.298905         1.088080
 C         4.562424        -0.809261         1.049498
 C         4.674731         0.475495         0.267504
 C         3.830365         1.175485        -0.456043
 C         2.347048         0.911966        -0.779612
 O         2.137795        -0.477726        -1.134481
 H        -0.393237         0.490158         1.058444
 H        -0.309746         1.297372        -0.498616
 H        -0.699005        -0.367035        -0.339606
 H         2.292729         0.250382         2.138100
 H         1.403842        -1.376012         1.740063
 H         4.905770        -0.502830         2.099382
 H         5.128568        -1.626307         0.765113
 H         5.656093         1.012794         0.491017
 H         4.163565         2.183534        -0.890420
 H         1.907877         1.717217        -1.340960
