19
Iteration:  2919charge 0 multiplicity 1
 C        -0.021419         0.377845         0.322956
 C         1.471596         0.122678         0.012218
 C         2.113700        -0.762378         1.177478
 O         3.292925        -1.479695         0.766978
 C         4.553266        -0.866765         1.127309
 C         4.664143         0.624824         0.571354
 C         3.813612         1.206274        -0.250012
 C         2.420751         0.943870        -0.794467
 O         1.992073        -0.359542        -1.318296
 H        -0.315720         1.484121        -0.127131
 H        -0.698295        -0.330809        -0.341379
 H        -0.253599         0.345584         1.471923
 H         2.302568         0.060932         2.046881
 H         1.473630        -1.511726         1.699968
 H         4.658307        -0.815662         2.143585
 H         5.335308        -1.497493         0.795686
 H         5.422513         1.400407         0.989369
 H         4.067054         2.204959        -0.455692
 H         2.205297         1.794038        -1.374904
