19
Iteration:  1615
 C         0.051954         0.381620         0.052187
 C         1.492385         0.037626         0.084993
 C         2.068308        -0.784280         1.312428
 O         3.283694        -1.349178         1.056855
 C         4.528505        -0.604998         1.248622
 C         4.695191         0.520756         0.296880
 C         3.824014         1.108015        -0.478398
 C         2.374668         0.900931        -0.701000
 O         1.953001        -0.374222        -1.245951
 H        -0.086117         1.332438         0.582647
 H        -0.349390         0.520843        -0.999174
 H        -0.261270        -0.398648         0.783763
 H         2.176158        -0.066748         2.161950
 H         1.460568        -1.579878         1.697529
 H         4.490651        -0.200440         2.328946
 H         5.317792        -1.463507         1.057493
 H         5.792411         0.712464         0.103262
 H         4.210085         1.766201        -1.214799
 H         1.982015         1.705781        -1.218965
