19
Iteration:  2610charge 0 multiplicity 1
 C        -0.002160         0.367785         0.174494
 C         1.533343         0.012718         0.152763
 C         2.017170        -1.046521         1.131231
 O         3.357459        -1.399339         0.859338
 C         4.334347        -0.434941         1.303535
 C         4.792592         0.403844         0.237170
 C         3.909244         1.116543        -0.463674
 C         2.441228         0.977347        -0.531832
 O         1.957310        -0.173783        -1.217392
 H        -0.391350         0.172269         1.176245
 H        -0.162250         1.493027        -0.121218
 H        -0.566528        -0.360130        -0.548195
 H         1.906765        -0.840534         2.202415
 H         1.476005        -1.982014         0.927417
 H         4.059507         0.145662         2.261108
 H         5.061421        -1.170129         1.699412
 H         5.846698         0.750696         0.138983
 H         4.326956         1.742071        -1.225922
 H         2.046749         1.933236        -0.785591
