19
Iteration:  2134charge 0 multiplicity 1
 C         0.129663         0.520194         0.299580
 C         1.515075        -0.012908         0.042179
 C         2.060563        -0.918815         1.149287
 O         3.393911        -1.390447         0.859505
 C         4.336869        -0.425586         1.437655
 C         4.800888         0.654925         0.426289
 C         3.933040         1.049603        -0.555229
 C         2.470449         0.690246        -0.776591
 O         1.709266        -0.409506        -1.312845
 H         0.332071         1.319202         1.113385
 H        -0.122693         1.070291        -0.628313
 H        -0.574716        -0.180861         0.628971
 H         1.984733        -0.530501         2.190147
 H         1.446341        -1.824479         1.106185
 H         3.964319         0.026180         2.456377
 H         5.296931        -1.040069         1.711578
 H         5.802190         1.182978         0.674908
 H         4.228437         1.954509        -1.133228
 H         1.974183         1.590376        -1.114998
