19
Iteration:    74charge 0 multiplicity 1
 C         0.090600         0.346750         0.148829
 C         1.549481         0.040989         0.018513
 C         2.140058        -0.585661         1.276610
 O         3.260108        -1.431114         1.076538
 C         4.535951        -0.740014         1.211320
 C         4.682655         0.497259         0.364969
 C         3.736333         1.192317        -0.416689
 C         2.288481         0.963901        -0.734354
 O         1.988835        -0.443911        -1.316117
 H        -0.051444         1.325298         0.818952
 H        -0.402777         0.502860        -0.745287
 H        -0.501206        -0.493128         0.739804
 H         2.421037         0.148971         2.019252
 H         1.377631        -1.301821         1.631238
 H         4.684691        -0.525529         2.309022
 H         5.372939        -1.486237         0.907240
 H         5.677414         0.938611         0.254393
 H         4.269107         1.870108        -1.215350
 H         1.827752         1.898782        -1.272630
