19
Iteration:  4256
 C        -0.014268         0.333983         0.315813
 C         1.484452         0.036838        -0.061563
 C         2.097762        -0.964045         1.005534
 O         3.362595        -1.527305         0.923132
 C         4.508805        -0.775472         1.276920
 C         4.674641         0.476029         0.510878
 C         3.892638         1.190192        -0.302944
 C         2.417775         1.084331        -0.628166
 O         1.890999        -0.081659        -1.443249
 H        -0.575904        -0.553093         0.516997
 H         0.021238         1.054415         1.172945
 H        -0.569954         0.838158        -0.535263
 H         2.191038        -0.259243         1.863592
 H         1.446650        -1.749894         1.181521
 H         4.391587        -0.401878         2.290979
 H         5.414216        -1.449308         1.322339
 H         5.689799         0.986845         0.780194
 H         4.199204         2.160296        -0.685598
 H         1.937680         2.004556        -0.954527
