19
Iteration:   625
 C        -0.047972         0.265114         0.149409
 C         1.476896         0.117504         0.122047
 C         2.112300        -0.638043         1.300954
 O         3.287810        -1.398790         0.977861
 C         4.419550        -0.636314         1.323984
 C         4.775593         0.510905         0.315701
 C         3.925513         1.092628        -0.568029
 C         2.423587         0.860373        -0.757330
 O         1.965712        -0.351400        -1.254835
 H        -0.404941         0.371212         1.232979
 H        -0.323805         1.113257        -0.433345
 H        -0.406491        -0.691379        -0.288833
 H         2.139204         0.101795         2.134265
 H         1.276419        -1.349040         1.668169
 H         4.415255        -0.247061         2.357988
 H         5.197668        -1.332742         1.337652
 H         5.806540         0.883225         0.406788
 H         4.249267         2.036248        -1.201869
 H         1.915625         1.719310        -1.382543
