19
Iteration:  2632
 C        -0.008365         0.298207         0.275203
 C         1.459034         0.046597         0.081494
 C         2.029718        -1.014646         1.003470
 O         3.381461        -1.376575         0.814839
 C         4.344050        -0.475178         1.423885
 C         4.860725         0.431437         0.332911
 C         4.009656         1.085985        -0.528604
 C         2.390504         1.062904        -0.486296
 O         1.893529        -0.166579        -1.237494
 H        -0.157801         0.598410         1.302134
 H        -0.418207         0.938154        -0.625353
 H        -0.544201        -0.778733         0.120651
 H         1.966664        -0.667458         2.028832
 H         1.453533        -1.940441         0.903332
 H         3.912525         0.090825         2.310029
 H         4.979417        -1.196654         1.902500
 H         5.894236         0.356351        -0.034221
 H         4.317090         1.609135        -1.422548
 H         2.122439         1.939709        -0.907520
