19
Iteration:  2485charge 0 multiplicity 1
 C        -0.016607         0.464724         0.071277
 C         1.509062         0.085975         0.134020
 C         2.091383        -0.759573         1.295601
 O         3.268233        -1.379944         0.872124
 C         4.551480        -0.694567         1.062471
 C         4.729223         0.554739         0.403413
 C         3.775908         1.186560        -0.344555
 C         2.389158         0.895099        -0.695767
 O         2.013332        -0.477416        -1.133123
 H        -0.301266         0.019082        -1.038340
 H        -0.610706        -0.133691         0.800312
 H        -0.212675         1.570307         0.200985
 H         2.181315        -0.295876         2.300207
 H         1.443163        -1.648018         1.397893
 H         4.511670        -0.480302         2.182266
 H         5.273063        -1.444911         1.006069
 H         5.734913         0.868391         0.277940
 H         4.088310         2.193802        -0.755011
 H         1.977444         1.741190        -1.268003
