19
Iteration:  2386
 C        -0.087123         0.254093         0.122396
 C         1.461968         0.007921         0.063420
 C         2.082699        -0.656668         1.346627
 O         3.283184        -1.311506         0.925617
 C         4.550315        -0.699046         1.224055
 C         4.777956         0.437440         0.330378
 C         3.862876         1.152886        -0.417177
 C         2.421171         0.935815        -0.738911
 O         1.983939        -0.323905        -1.230209
 H        -0.215127         1.428980         0.139112
 H        -0.518991        -0.033720        -0.842611
 H        -0.538521        -0.150592         0.962106
 H         2.147230         0.155104         2.169735
 H         1.431128        -1.448645         1.791382
 H         4.559633        -0.422015         2.302516
 H         5.263233        -1.494081         1.156548
 H         5.757729         0.709226         0.237081
 H         4.172235         2.020462        -0.991813
 H         1.776259         1.683177        -1.179355
