19
Iteration:   229charge 0 multiplicity 1
 C        -0.121988         0.271268         0.302481
 C         1.455862         0.083538        -0.008588
 C         2.091364        -0.607574         1.232405
 O         3.284745        -1.336907         0.917202
 C         4.451733        -0.639730         1.315959
 C         4.785360         0.493020         0.338173
 C         3.989276         1.171285        -0.484937
 C         2.500167         0.946064        -0.786055
 O         1.881895        -0.494672        -1.236397
 H        -0.286724         0.995953         1.125614
 H        -0.648648         0.571533        -0.643696
 H        -0.363121        -0.738967         0.669109
 H         2.244055         0.028784         2.076821
 H         1.338516        -1.260090         1.634900
 H         4.545903        -0.344646         2.340985
 H         5.350280        -1.420418         1.203055
 H         5.822042         0.648466         0.242467
 H         4.367322         1.984992        -0.978990
 H         2.084088         1.694907        -1.439360
