19
Iteration:   298
 C         0.179011         0.554856         0.264161
 C         1.581591         0.047776         0.101471
 C         1.991902        -0.973135         1.197991
 O         3.327590        -1.447420         1.203700
 C         4.434231        -0.503373         1.181224
 C         4.713500         0.591527         0.265480
 C         3.799163         1.176562        -0.567453
 C         2.405438         0.854782        -0.809804
 O         1.898420        -0.495163        -1.253256
 H         0.138392         1.286627         1.057793
 H        -0.131107         1.154509        -0.720901
 H        -0.552560        -0.201933         0.493221
 H         1.595909        -0.656928         2.125207
 H         1.372946        -1.802293         0.990328
 H         4.479578        -0.083481         2.182716
 H         5.346840        -1.179372         1.192382
 H         5.711702         1.122611         0.305099
 H         4.134442         2.215913        -1.062291
 H         1.974523         1.695984        -1.319496
