19
Iteration:  2967
 C         0.067878         0.374277         0.128988
 C         1.594954         0.013642         0.097010
 C         2.022964        -0.957044         1.184918
 O         3.276925        -1.624564         1.021270
 C         4.426979        -0.729256         1.111920
 C         4.704662         0.558004         0.328053
 C         3.815316         1.321797        -0.409219
 C         2.345063         1.044319        -0.577942
 O         2.046979        -0.154373        -1.258928
 H        -0.222670         1.200361        -0.457027
 H        -0.569556        -0.427044        -0.143743
 H        -0.121833         0.615305         1.147042
 H         1.930872        -0.529050         2.242212
 H         1.223252        -1.778657         1.206350
 H         4.615196        -0.423882         2.114227
 H         5.306820        -1.327350         0.873112
 H         5.728396         0.866766         0.335465
 H         4.301414         2.222030        -0.971187
 H         1.838418         2.004265        -0.865117
