19
Iteration:  3952charge 0 multiplicity 1
 C         0.024089         0.379564         0.155874
 C         1.498769         0.101805         0.104595
 C         2.023928        -1.048760         1.169566
 O         3.317838        -1.538963         0.916829
 C         4.434296        -0.683890         1.174690
 C         4.706648         0.505297         0.282468
 C         3.808739         1.240936        -0.361935
 C         2.404796         1.096777        -0.547213
 O         2.080768        -0.158765        -1.248232
 H        -0.291294         0.835501        -0.720530
 H        -0.333329        -0.638458         0.183404
 H        -0.265593         0.913191         1.062964
 H         1.796292        -0.685914         2.213331
 H         1.285516        -1.848997         0.753326
 H         4.456683        -0.351544         2.315391
 H         5.254798        -1.448825         1.211108
 H         5.800767         0.765741         0.456608
 H         4.279320         1.971673        -0.992623
 H         1.773574         2.026588        -0.875836
