19
Iteration:   237charge 0 multiplicity 1
 C        -0.024971         0.255492         0.261679
 C         1.518574         0.097135         0.017345
 C         2.091355        -0.617505         1.220540
 O         3.296741        -1.281580         0.853913
 C         4.455567        -0.640437         1.363486
 C         4.820149         0.432295         0.336921
 C         3.904950         1.160152        -0.486497
 C         2.485097         0.887311        -0.771746
 O         1.804670        -0.464931        -1.212270
 H        -0.235108         1.151610         0.968809
 H        -0.486827         0.475935        -0.600924
 H        -0.475065        -0.725690         0.689575
 H         2.374975         0.222755         1.934901
 H         1.431208        -1.476959         1.607615
 H         4.216707        -0.245455         2.437337
 H         5.273229        -1.437845         1.395603
 H         5.859103         0.808634         0.298851
 H         4.406362         2.047535        -0.872896
 H         1.945480         1.698788        -1.391096
