19
Iteration:  3632
 C        -0.005812         0.274640         0.345220
 C         1.551393        -0.010815         0.049420
 C         2.024797        -1.005703         1.036116
 O         3.326050        -1.513784         0.915533
 C         4.408025        -0.642525         1.271494
 C         4.709183         0.501306         0.392931
 C         3.898335         1.176370        -0.456842
 C         2.440187         1.071427        -0.569348
 O         1.986561        -0.016161        -1.335475
 H        -0.425563         0.780573        -0.507752
 H        -0.372078        -0.798473         0.541571
 H        -0.069414         1.053416         1.112716
 H         1.658523        -0.508359         2.020239
 H         1.277816        -1.901804         0.916976
 H         4.173830        -0.355457         2.393458
 H         5.245843        -1.318911         1.262477
 H         5.775763         0.785505         0.280657
 H         4.389875         1.836528        -1.261543
 H         1.979520         2.007943        -0.829945
