19
Iteration:  1535
 C        -0.064844         0.301043         0.145493
 C         1.474175         0.029875         0.016437
 C         2.112662        -0.486728         1.313490
 O         3.294560        -1.448327         1.116422
 C         4.532836        -0.688712         1.193947
 C         4.679040         0.542215         0.397351
 C         3.873222         1.084700        -0.462068
 C         2.438557         0.884679        -0.839193
 O         1.927655        -0.427763        -1.294681
 H        -0.247604         0.382687         1.224069
 H        -0.249640         1.227803        -0.352484
 H        -0.692350        -0.511209        -0.397862
 H         2.449387         0.370813         1.883104
 H         1.472375        -1.145754         1.934356
 H         4.906328        -0.471819         2.260087
 H         5.410760        -1.266872         0.878005
 H         5.612516         1.068005         0.530364
 H         4.147720         2.072719        -0.941695
 H         2.026688         1.746003        -1.308477
