19
Iteration:  1391charge 0 multiplicity 1
 C         0.059036         0.386364         0.321439
 C         1.508858         0.043964        -0.021344
 C         2.112200        -0.764279         1.189658
 O         3.345804        -1.322980         0.997813
 C         4.485230        -0.500259         1.442300
 C         4.682229         0.567774         0.445404
 C         3.918434         0.911198        -0.570849
 C         2.462131         0.811660        -0.793422
 O         1.773376        -0.337246        -1.405875
 H         0.006784         1.326068         0.932584
 H        -0.434258         0.381382        -0.668691
 H        -0.337363        -0.531338         0.781823
 H         2.085691        -0.009496         1.988733
 H         1.288213        -1.520511         1.399868
 H         4.282030        -0.158422         2.447204
 H         5.278218        -1.359685         1.695434
 H         5.660336         1.115737         0.458185
 H         4.369260         1.602232        -1.345180
 H         2.098442         1.710053        -1.284715
