19
Iteration:  2329charge 0 multiplicity 1
 C         0.124282         0.571331         0.254495
 C         1.580501         0.030778         0.065140
 C         2.079178        -0.911082         1.182737
 O         3.349784        -1.485084         1.038002
 C         4.415563        -0.603704         1.303867
 C         4.617993         0.664764         0.370042
 C         3.831113         1.180488        -0.564879
 C         2.410328         0.868395        -0.837297
 O         1.902748        -0.487829        -1.231447
 H         0.143977         1.264594         1.167150
 H        -0.211378         0.958317        -0.750229
 H        -0.532801        -0.270800         0.426282
 H         2.028436        -0.239602         2.116955
 H         1.363615        -1.757510         1.275819
 H         4.364084        -0.163628         2.388340
 H         5.316787        -1.159427         1.191478
 H         5.572089         1.016785         0.674674
 H         4.146910         2.062086        -1.136248
 H         2.004621         1.702926        -1.506754
