19
Iteration:  4485charge 0 multiplicity 1
 C         0.162026         0.598402         0.425556
 C         1.532288        -0.030242         0.043695
 C         1.999749        -1.131354         0.915422
 O         3.387858        -1.549428         0.630515
 C         4.277354        -0.651094         1.325361
 C         4.681533         0.633351         0.575532
 C         3.893032         1.281215        -0.332253
 C         2.480169         0.896024        -0.670368
 O         1.925765        -0.246773        -1.279741
 H        -0.364571         0.072568         1.157744
 H         0.339063         1.659157         0.720845
 H        -0.425814         0.638964        -0.433596
 H         1.718711        -1.206549         1.977096
 H         1.515439        -2.157207         0.569218
 H         3.772711        -0.147136         2.251253
 H         5.158517        -1.114735         1.534096
 H         5.634401         1.062090         0.868751
 H         4.220281         2.318665        -0.620859
 H         2.048808         1.921768        -1.005668
