19
Iteration:  4774charge 0 multiplicity 1
 C         0.008733         0.239843         0.168860
 C         1.533395         0.124525         0.012967
 C         2.133758        -0.974041         1.045625
 O         3.356605        -1.581033         0.947840
 C         4.431606        -0.761646         1.304530
 C         4.697956         0.391777         0.402211
 C         3.856036         1.198422        -0.329141
 C         2.373338         1.157567        -0.521230
 O         1.959014         0.034622        -1.412202
 H        -0.431729        -0.277745         1.101898
 H        -0.254081         1.278209         0.285174
 H        -0.659850        -0.132046        -0.675376
 H         2.035323        -0.435990         2.049245
 H         1.380848        -1.878850         0.976171
 H         4.199005        -0.432796         2.363781
 H         5.238459        -1.480349         1.244761
 H         5.765846         0.782296         0.483443
 H         4.330828         2.113403        -0.700183
 H         1.877864         2.166251        -0.671686
