19
Iteration:  1846
 C         0.063757         0.460938         0.118413
 C         1.505941         0.006536         0.146928
 C         1.922779        -0.955238         1.223915
 O         3.354612        -1.432211         1.073851
 C         4.369297        -0.423048         1.244979
 C         4.751571         0.479590         0.139587
 C         3.878140         1.161443        -0.614424
 C         2.407839         0.938586        -0.640679
 O         2.059399        -0.407683        -1.098130
 H        -0.290793         1.354969         0.828140
 H        -0.181447         0.854430        -0.860298
 H        -0.549980        -0.357799         0.370198
 H         1.701560        -0.463305         2.178504
 H         1.336319        -1.821044         1.055549
 H         4.150144         0.128184         2.204969
 H         5.264955        -0.964344         1.688914
 H         5.784605         0.546981        -0.050955
 H         4.434071         1.836803        -1.348643
 H         1.885886         1.762277        -1.052558
