19
Iteration:  1440
 C         0.110268         0.510086         0.070608
 C         1.567275         0.085677         0.156619
 C         1.955555        -0.875877         1.262107
 O         3.327746        -1.461066         1.131072
 C         4.405442        -0.537938         1.190987
 C         4.690643         0.484455         0.172759
 C         3.792898         1.261007        -0.520474
 C         2.365656         0.861925        -0.772314
 O         2.068029        -0.479320        -1.111691
 H         0.165894         1.439009         0.597550
 H        -0.137069         0.582884        -1.010193
 H        -0.489035        -0.283027         0.574623
 H         1.835415        -0.412889         2.308622
 H         1.241099        -1.646705         1.100230
 H         4.455225        -0.080141         2.189525
 H         5.285474        -1.236432         1.262393
 H         5.711144         0.780924         0.122674
 H         4.092257         2.163411        -0.958958
 H         1.802455         1.729037        -1.169432
