19
Iteration:  4636
 C         0.036091         0.248166         0.172789
 C         1.510301         0.032166         0.070784
 C         2.042747        -0.952228         1.089591
 O         3.307531        -1.479058         0.921867
 C         4.397789        -0.716365         1.321941
 C         4.743059         0.428259         0.306573
 C         3.918620         1.175814        -0.403135
 C         2.405634         1.131455        -0.523312
 O         1.954499        -0.030898        -1.302379
 H        -0.384972        -0.124202        -0.804346
 H        -0.347941        -0.478178         1.009110
 H        -0.327521         1.285246         0.249163
 H         2.021529        -0.445747         2.105470
 H         1.451266        -1.864405         1.028326
 H         4.278034        -0.261133         2.393495
 H         5.314129        -1.382965         1.237257
 H         5.753769         0.624106         0.301326
 H         4.407180         2.041587        -0.927850
 H         1.936311         2.077120        -0.886706
