19
Iteration:  4627charge 0 multiplicity 1
 C        -0.002714         0.194604         0.089645
 C         1.529618         0.063402         0.084084
 C         2.072591        -0.983459         1.179921
 O         3.293011        -1.509088         0.913197
 C         4.368872        -0.667758         1.237453
 C         4.780646         0.392099         0.262731
 C         3.923475         1.215196        -0.418561
 C         2.454158         1.123856        -0.488410
 O         1.965607        -0.019254        -1.234051
 H        -0.448707        -0.023099        -0.862030
 H        -0.524197        -0.290907         0.991089
 H        -0.351098         1.193838         0.283290
 H         1.965001        -0.685105         2.258935
 H         1.308747        -1.849036         1.060165
 H         3.957269        -0.038903         1.983297
 H         5.145762        -1.353461         1.587670
 H         5.782811         0.682885         0.185077
 H         4.420468         2.082665        -0.843012
 H         2.037088         2.155545        -0.833170
