19
Iteration:  3409
 C        -0.085669         0.176546         0.086727
 C         1.488111         0.067255         0.093247
 C         2.073084        -0.870182         1.216659
 O         3.278861        -1.343113         0.735017
 C         4.481973        -0.756902         1.218441
 C         4.815459         0.412495         0.324369
 C         3.918336         1.205414        -0.327219
 C         2.424390         1.063036        -0.406797
 O         1.935186        -0.105934        -1.236039
 H        -0.282232         0.187796        -1.130325
 H        -0.619693        -0.665889         0.592849
 H        -0.364873         1.134673         0.721112
 H         2.262586        -0.309781         2.096856
 H         1.405578        -1.667472         1.462226
 H         4.463155        -0.512926         2.386750
 H         5.280116        -1.484911         1.147781
 H         5.802325         0.603912         0.037187
 H         4.276724         1.879492        -1.174035
 H         1.907588         1.930812        -0.550306
