19
Iteration:   465
 C         0.122539         0.449481         0.373794
 C         1.507385         0.031438        -0.036976
 C         2.036115        -0.847066         1.162603
 O         3.349455        -1.432777         1.220944
 C         4.529622        -0.566751         1.375270
 C         4.632591         0.571112         0.336805
 C         3.845356         1.067100        -0.627354
 C         2.382842         0.891085        -0.886337
 O         1.908551        -0.385367        -1.403212
 H         0.131061         1.249678         1.187121
 H        -0.320252         1.037021        -0.327235
 H        -0.659076        -0.320664         0.658527
 H         1.824920        -0.371039         2.221727
 H         1.331862        -1.683235         1.255706
 H         4.591745        -0.218065         2.454288
 H         5.471631        -1.198572         1.318057
 H         5.497184         1.139272         0.541240
 H         4.333925         2.021365        -1.286519
 H         1.936332         1.738955        -1.443664
