19
Iteration:   324
 C         0.191088         0.477268         0.398408
 C         1.594442        -0.012975        -0.003201
 C         2.042637        -0.889611         1.156385
 O         3.330927        -1.460539         1.212362
 C         4.369169        -0.483512         1.319643
 C         4.611503         0.472741         0.199747
 C         3.835744         1.211007        -0.583767
 C         2.362068         0.924003        -0.876488
 O         1.983003        -0.435539        -1.317062
 H         0.274176         1.034903         1.424856
 H        -0.148191         1.190669        -0.249269
 H        -0.591029        -0.355571         0.550067
 H         1.748759        -0.322050         2.062352
 H         1.318537        -1.765636         1.167652
 H         4.285976         0.014246         2.274027
 H         5.221559        -1.026448         1.425124
 H         5.611261         0.858652         0.295442
 H         4.347585         1.991612        -1.235283
 H         1.776417         1.789768        -1.329344
