19
Iteration:  1769
 C         0.006546         0.306070         0.470469
 C         1.523800         0.089451         0.045083
 C         2.042936        -0.938856         1.062956
 O         3.365576        -1.406564         1.060027
 C         4.362458        -0.286432         1.517939
 C         4.707875         0.534827         0.358824
 C         3.961246         0.876694        -0.718685
 C         2.519878         0.870064        -0.807079
 O         1.829713        -0.229170        -1.421001
 H         0.022715         0.542644         1.634100
 H        -0.432603         1.218631        -0.007358
 H        -0.690374        -0.398927         0.060146
 H         1.910708        -0.373612         2.059553
 H         1.307026        -1.735020         1.138601
 H         4.091306         0.207866         2.440242
 H         5.262732        -0.971914         1.777513
 H         5.806584         0.710358         0.347528
 H         4.725067         1.273481        -1.479864
 H         2.317944         1.748568        -1.315505
