19
Iteration:  1341
 C         0.110950         0.525049         0.288972
 C         1.539531        -0.004445         0.090479
 C         1.983094        -0.978879         1.161324
 O         3.371619        -1.369394         1.075361
 C         4.302052        -0.389448         1.343347
 C         4.765411         0.530354         0.296570
 C         3.892120         1.087095        -0.644275
 C         2.436826         0.823612        -0.759946
 O         1.943081        -0.428466        -1.264121
 H         0.121550         0.947143         1.271738
 H        -0.099670         1.291487        -0.433548
 H        -0.674321        -0.241474        -0.001858
 H         1.628121        -0.626998         2.170560
 H         1.373885        -1.859822         0.956998
 H         4.014052         0.131507         2.337740
 H         5.156816        -0.938484         1.631876
 H         5.822734         0.853743         0.337882
 H         4.359989         1.825266        -1.405446
 H         1.851654         1.726855        -1.121046
