19
Iteration:  2711charge 0 multiplicity 1
 C         0.161026         0.629205         0.456289
 C         1.600703        -0.010242         0.079563
 C         2.042190        -1.122676         0.934947
 O         3.422549        -1.565789         0.857826
 C         4.333178        -0.586802         1.418757
 C         4.693470         0.629179         0.446710
 C         3.793542         1.197081        -0.447298
 C         2.420836         0.962365        -0.738183
 O         1.894305        -0.294410        -1.391949
 H         0.006467         1.704192         0.277020
 H        -0.606013         0.340437        -0.345579
 H        -0.022259         0.350869         1.520503
 H         1.691564        -1.063935         1.927056
 H         1.461295        -1.995296         0.492745
 H         3.977381        -0.293200         2.416256
 H         5.190857        -1.297847         1.643547
 H         5.590696         1.134771         0.778825
 H         4.160783         2.087986        -0.981398
 H         1.891537         1.882320        -0.962362
