19
Iteration:  3717charge 0 multiplicity 1
 C         0.233066         0.505477         0.370753
 C         1.596192         0.026539         0.052403
 C         2.002809        -1.108345         1.003179
 O         3.346348        -1.570539         0.900279
 C         4.385827        -0.647863         1.235753
 C         4.590803         0.674288         0.548234
 C         3.885022         1.304747        -0.406355
 C         2.473426         0.943606        -0.717185
 O         1.810610        -0.292087        -1.388669
 H        -0.014417         1.704677         0.123015
 H        -0.548112        -0.075294         0.001795
 H         0.068147         0.374235         1.506545
 H         1.880381        -0.634476         2.005675
 H         1.398384        -1.991517         0.956878
 H         4.466462        -0.512374         2.296340
 H         5.425759        -1.159339         1.028966
 H         5.645384         1.139727         0.820547
 H         4.238581         2.317250        -0.773111
 H         1.863695         1.721867        -1.163291
