19
Iteration:  4825charge 0 multiplicity 1
 C         0.083895         0.244950         0.189905
 C         1.502881         0.071842         0.064392
 C         1.954027        -1.099048         1.004918
 O         3.326582        -1.535456         0.863917
 C         4.394009        -0.645609         1.253578
 C         4.751309         0.396323         0.265149
 C         3.897140         1.233227        -0.270879
 C         2.483521         1.107038        -0.417919
 O         1.971442         0.037290        -1.280109
 H        -0.378680         0.863844         0.897070
 H        -0.310215         0.707409        -0.744605
 H        -0.419491        -0.716123         0.107756
 H         1.776889        -0.649192         2.016328
 H         1.382519        -1.959961         0.742117
 H         3.998707        -0.058351         2.073718
 H         5.183011        -1.355124         1.591783
 H         5.848091         0.676515         0.305055
 H         4.355152         2.144785        -0.690908
 H         1.945022         2.089757        -0.669124
