19
Iteration:  1414
 C        -0.001965         0.510939         0.151530
 C         1.476497        -0.040479         0.026480
 C         2.062443        -0.873558         1.207793
 O         3.363630        -1.385958         1.125826
 C         4.473139        -0.523539         1.303814
 C         4.740113         0.568176         0.341318
 C         3.920821         1.094117        -0.545564
 C         2.376302         0.868071        -0.755662
 O         1.886571        -0.403741        -1.280696
 H         0.208994         1.475843         0.624679
 H        -0.488689         0.524026        -0.818556
 H        -0.613693        -0.193826         0.802974
 H         1.989558        -0.179291         2.086336
 H         1.350899        -1.704419         1.402809
 H         4.513515        -0.161902         2.329463
 H         5.373049        -1.361543         1.339963
 H         5.816697         0.881576         0.392639
 H         4.353112         1.835231        -1.320875
 H         1.868213         1.740183        -1.075239
