19
Iteration:  4528charge 0 multiplicity 1
 C         0.175619         0.380311         0.389480
 C         1.569761         0.057029        -0.041017
 C         2.097886        -1.031493         0.939299
 O         3.401682        -1.473051         0.829423
 C         4.395448        -0.698252         1.434241
 C         4.641066         0.585081         0.652661
 C         3.899750         1.042136        -0.434928
 C         2.449587         0.944564        -0.735884
 O         1.743954        -0.037640        -1.463469
 H        -0.385928        -0.467928         0.662449
 H         0.194391         0.880975         1.377731
 H        -0.396324         1.053309        -0.181328
 H         1.833415        -0.653117         1.909740
 H         1.349864        -1.901250         0.952011
 H         4.002704        -0.471400         2.538940
 H         5.247881        -1.307970         1.580229
 H         5.569953         1.121116         0.756958
 H         4.292172         2.009780        -0.871821
 H         2.157370         2.028561        -1.004507
