19
Iteration:  3026charge 0 multiplicity 1
 C        -0.067608         0.255608         0.294764
 C         1.491242         0.046703         0.119127
 C         2.031688        -0.970611         1.084279
 O         3.347242        -1.410297         0.728630
 C         4.380872        -0.598000         1.322148
 C         4.782996         0.413967         0.409355
 C         3.956756         1.103369        -0.450621
 C         2.480767         1.037881        -0.516600
 O         1.958871        -0.049777        -1.323338
 H        -0.612867         0.445261        -0.617084
 H        -0.463743        -0.689077         0.609753
 H        -0.331774         0.954147         1.036594
 H         1.931787        -0.371818         2.008460
 H         1.457201        -1.884795         1.069015
 H         4.036740        -0.203770         2.336547
 H         5.198104        -1.381396         1.434956
 H         5.878605         0.782513         0.396721
 H         4.433629         1.736125        -1.132990
 H         1.844895         1.987737        -0.744296
