19
Iteration:  4477charge 0 multiplicity 1
 C         0.193251         0.604499         0.359326
 C         1.550295         0.003920         0.152060
 C         2.034453        -1.230136         0.907266
 O         3.352393        -1.543580         0.654686
 C         4.276490        -0.571038         1.262718
 C         4.673672         0.584554         0.501899
 C         3.906339         1.316698        -0.269581
 C         2.473004         0.912460        -0.615429
 O         1.934536        -0.266595        -1.302564
 H        -0.442622         0.193790         1.187522
 H         0.123808         1.688784         0.653144
 H        -0.328016         0.562724        -0.600146
 H         1.695023        -1.122001         2.005927
 H         1.340406        -1.962530         0.481205
 H         3.888113        -0.254237         2.181319
 H         5.167587        -1.160384         1.643502
 H         5.567526         0.976171         0.916360
 H         4.155182         2.266766        -0.647837
 H         1.904848         1.786522        -1.005991
