19
Iteration:  1007
 C        -0.004395         0.287577         0.037776
 C         1.451628         0.050064        -0.005817
 C         2.099564        -0.579945         1.293261
 O         3.295881        -1.315593         1.122943
 C         4.587576        -0.729126         1.187424
 C         4.772796         0.534616         0.410575
 C         3.909806         1.093066        -0.399096
 C         2.381501         0.898599        -0.814814
 O         1.837660        -0.432094        -1.249995
 H        -0.253501         0.839912         1.025163
 H        -0.340718         0.907273        -0.834838
 H        -0.682467        -0.615942         0.094058
 H         2.245727         0.155853         2.074432
 H         1.438185        -1.238276         1.855643
 H         4.872787        -0.541387         2.316052
 H         5.341107        -1.600704         0.969995
 H         5.732336         1.207032         0.344192
 H         4.173346         2.009229        -0.874249
 H         1.895813         1.648418        -1.404742
