19
Iteration:   412
 C         0.016141         0.471862         0.248270
 C         1.486570        -0.000637         0.078100
 C         2.024336        -0.901708         1.226622
 O         3.350674        -1.344134         1.038249
 C         4.365764        -0.446582         1.328081
 C         4.758680         0.513728         0.202848
 C         3.887701         1.021261        -0.652380
 C         2.452663         0.892663        -0.700369
 O         2.007116        -0.389351        -1.190186
 H        -0.165930         0.771795         1.324038
 H        -0.290644         1.203043        -0.437175
 H        -0.710182        -0.389099         0.084790
 H         1.919313        -0.482256         2.196690
 H         1.403254        -1.832855         1.274173
 H         4.037522         0.121099         2.258797
 H         5.212898        -0.997132         1.573424
 H         5.819140         0.688316         0.057200
 H         4.201508         1.774080        -1.479221
 H         1.898285         1.739829        -1.152526
