19
Iteration:  1870
 C         0.088748         0.332926         0.213465
 C         1.561842         0.069624         0.128903
 C         1.959170        -0.826635         1.272938
 O         3.295153        -1.385262         0.944232
 C         4.348138        -0.487176         1.298073
 C         4.800191         0.488872         0.235373
 C         3.894669         1.183929        -0.544716
 C         2.456592         0.890697        -0.757264
 O         1.927870        -0.453340        -1.202124
 H        -0.122480         1.400758         0.651864
 H        -0.212172         0.562901        -0.811128
 H        -0.527674        -0.377451         0.732407
 H         2.023365        -0.171681         2.166236
 H         1.240077        -1.593727         1.367878
 H         4.206892        -0.114183         2.320372
 H         5.262890        -1.140656         1.562036
 H         5.812319         0.851495         0.408320
 H         4.335782         1.975561        -1.128776
 H         2.045281         1.661086        -1.264650
