19
Iteration:  3179
 C         0.090186         0.296752         0.239398
 C         1.558273        -0.010074         0.004678
 C         2.037426        -1.118764         1.068528
 O         3.362447        -1.504064         1.005868
 C         4.362061        -0.501832         1.325243
 C         4.774166         0.414074         0.203796
 C         3.889905         1.113444        -0.446294
 C         2.379847         1.063617        -0.436043
 O         1.906124         0.068320        -1.341636
 H        -0.296116         0.898279        -0.560426
 H        -0.502072        -0.537547         0.309806
 H        -0.088633         0.856514         1.104617
 H         1.600378        -0.975544         1.966415
 H         1.573185        -2.076413         0.698689
 H         4.042682         0.140962         2.252215
 H         5.197796        -1.202403         1.737862
 H         5.890278         0.447379         0.052178
 H         4.314424         1.783867        -1.234008
 H         1.817709         2.031400        -0.427604
