19
Iteration:  4778
 C        -0.008633         0.228584         0.172868
 C         1.550856         0.084874         0.030975
 C         2.111809        -0.989613         1.053292
 O         3.343137        -1.607935         0.953114
 C         4.435767        -0.733690         1.306099
 C         4.692239         0.398569         0.379554
 C         3.836843         1.157038        -0.333804
 C         2.372303         1.193042        -0.544680
 O         1.995469         0.080620        -1.401314
 H        -0.388424        -0.123240         1.141178
 H        -0.466347         1.244746         0.303170
 H        -0.529820        -0.192075        -0.663816
 H         2.062490        -0.345236         1.978403
 H         1.402966        -1.739408         0.938112
 H         4.240971        -0.447952         2.341956
 H         5.379380        -1.347902         1.246687
 H         5.677756         0.673732         0.523016
 H         4.366783         2.028910        -0.711848
 H         1.891890         2.096239        -0.663588
