19
Iteration:  3339
 C         0.190494         0.478896         0.369398
 C         1.651028        -0.015255         0.007083
 C         2.031961        -0.993402         1.115451
 O         3.289131        -1.608373         0.871973
 C         4.344801        -0.755747         1.101980
 C         4.554433         0.637578         0.461688
 C         3.770599         1.340178        -0.323130
 C         2.404167         0.996428        -0.681755
 O         2.060223        -0.267112        -1.345030
 H        -0.363704         0.824728        -0.468140
 H        -0.396540        -0.303051         0.992060
 H         0.326680         1.297020         1.155729
 H         1.906922        -0.414282         2.022154
 H         1.386168        -1.847729         1.175272
 H         4.520101        -0.563774         2.271851
 H         5.228472        -1.266387         0.839954
 H         5.493275         1.264953         0.776751
 H         4.072191         2.276850        -0.678381
 H         1.814253         1.937017        -1.097517
