19
Iteration:  4684charge 0 multiplicity 1
 C         0.126853         0.509356         0.334661
 C         1.554963         0.020481         0.018939
 C         2.040639        -0.991223         1.017898
 O         3.343873        -1.554954         0.790891
 C         4.489874        -0.760366         1.262582
 C         4.580309         0.603995         0.589430
 C         3.867692         1.282973        -0.278617
 C         2.512442         0.926668        -0.761801
 O         1.831592        -0.251195        -1.395678
 H        -0.666554        -0.040110        -0.239634
 H        -0.156274         0.333945         1.418214
 H         0.102068         1.590037         0.074152
 H         2.164891        -0.433832         1.964362
 H         1.309556        -1.920285         1.062820
 H         4.406067        -0.435251         2.311346
 H         5.417282        -1.328460         1.161737
 H         5.359476         1.273970         1.123455
 H         4.190065         2.296486        -0.420823
 H         1.936863         1.921615        -0.952294
