19
Iteration:  3506charge 0 multiplicity 1
 C         0.023671         0.536708         0.395483
 C         1.520304         0.025087        -0.000135
 C         2.135648        -0.986923         0.990116
 O         3.382155        -1.478373         0.749010
 C         4.471536        -0.634124         1.256660
 C         4.667487         0.611556         0.620236
 C         3.885275         1.146846        -0.314555
 C         2.431058         0.887312        -0.705049
 O         1.805339        -0.304383        -1.368747
 H        -0.041968         1.652364         0.058164
 H        -0.668282        -0.131741        -0.049804
 H        -0.091328         0.456888         1.532475
 H         2.130514        -0.364680         2.022776
 H         1.408482        -1.749403         1.149653
 H         4.353720        -0.543088         2.395207
 H         5.329044        -1.266479         1.181441
 H         5.627882         1.006457         0.734959
 H         4.258742         2.060679        -0.805271
 H         2.016032         1.830409        -1.189921
