19
Iteration:  3072
 C         0.255732         0.591785         0.437999
 C         1.552313         0.011361         0.041545
 C         2.091775        -1.168722         0.909462
 O         3.437017        -1.553627         0.897560
 C         4.336883        -0.670196         1.387481
 C         4.600725         0.552182         0.479032
 C         3.799078         1.262931        -0.397888
 C         2.419140         0.970171        -0.720632
 O         1.835420        -0.218050        -1.406346
 H        -0.113631         1.332397        -0.421744
 H        -0.625714        -0.121241         0.627417
 H         0.488870         1.174371         1.375465
 H         1.759355        -1.017535         1.968644
 H         1.591408        -1.939326         0.369732
 H         4.062485        -0.142301         2.355657
 H         5.266805        -1.237725         1.486086
 H         5.593897         1.049562         0.654143
 H         4.068370         2.224982        -0.859125
 H         1.827993         1.892643        -1.027563
