19
Iteration:  1404
 C         0.073067         0.424375         0.210013
 C         1.470033        -0.026053         0.008497
 C         2.002880        -0.747111         1.155484
 O         3.399095        -1.392015         1.066534
 C         4.452435        -0.527765         1.396398
 C         4.762829         0.582085         0.406154
 C         3.876860         0.951243        -0.583638
 C         2.436369         0.853721        -0.737420
 O         1.827370        -0.367399        -1.341896
 H        -0.049990         1.392770         0.720381
 H        -0.516159         0.605331        -0.664782
 H        -0.575217        -0.235677         0.928780
 H         1.989047        -0.081803         2.083416
 H         1.483593        -1.624281         1.472253
 H         4.408085        -0.107159         2.371858
 H         5.525938        -1.032233         1.153531
 H         5.820737         0.976614         0.429647
 H         4.290416         1.863683        -1.196729
 H         2.048765         1.728875        -1.120331
