19
Iteration:  4220
 C         0.054679         0.323590         0.121144
 C         1.564569         0.024806         0.205018
 C         1.954845        -1.153189         1.150612
 O         3.296039        -1.492390         0.869831
 C         4.344821        -0.652450         1.213851
 C         4.677330         0.465760         0.255785
 C         3.923944         1.323265        -0.420901
 C         2.446573         1.110306        -0.508839
 O         2.065080        -0.081636        -1.209268
 H        -0.474273        -0.496390        -0.448579
 H        -0.401451         0.327766         1.062496
 H        -0.148783         1.317078        -0.377391
 H         1.769217        -0.861715         2.165071
 H         1.315658        -2.112846         1.044205
 H         4.191381        -0.158783         2.221894
 H         5.178958        -1.327060         1.409477
 H         5.829229         0.569667         0.044311
 H         4.515471         1.983209        -1.009460
 H         1.795904         2.117603        -0.837607
