19
Iteration:  1146
 C         0.085815         0.383465         0.205725
 C         1.508863         0.035627         0.020335
 C         2.144386        -0.653754         1.205574
 O         3.315592        -1.370284         0.971166
 C         4.444426        -0.630616         1.336909
 C         4.663002         0.511967         0.448557
 C         3.887929         1.111299        -0.514987
 C         2.376872         0.863526        -0.863852
 O         1.901733        -0.452229        -1.255778
 H        -0.026913         1.032124         1.051978
 H        -0.334220         0.724999        -0.660643
 H        -0.334770        -0.559151         0.541329
 H         2.117660         0.074599         2.002990
 H         1.338671        -1.282608         1.617411
 H         4.333229        -0.241465         2.425420
 H         5.153215        -1.407208         1.330793
 H         5.640548         0.985609         0.594592
 H         4.326459         2.130547        -0.932157
 H         1.917666         1.707359        -1.441601
