19
Iteration:  1925charge 0 multiplicity 1
 C         0.140039         0.443967         0.171423
 C         1.541222         0.013878        -0.008625
 C         2.152418        -0.707979         1.245560
 O         3.331598        -1.384740         1.099070
 C         4.536334        -0.705749         1.233051
 C         4.658481         0.639270         0.477048
 C         3.797731         1.131688        -0.446517
 C         2.409055         0.788659        -0.890258
 O         1.797063        -0.461425        -1.332176
 H         0.157370         1.242939         1.022320
 H        -0.349851         0.890255        -0.709250
 H        -0.501822        -0.289643         0.630638
 H         2.185752         0.160156         1.915050
 H         1.375683        -1.328785         1.548490
 H         4.477029        -0.453876         2.363498
 H         5.296909        -1.537666         0.986646
 H         5.483150         1.333898         0.757170
 H         3.882232         2.134081        -0.756724
 H         2.055079         1.600757        -1.371102
