19
Iteration:  3359
 C         0.091020         0.368631         0.279551
 C         1.537475         0.025198         0.036212
 C         2.059657        -0.935755         1.104409
 O         3.277539        -1.559190         0.896626
 C         4.489164        -0.749414         1.166521
 C         4.614544         0.530402         0.435300
 C         3.845393         1.330387        -0.320590
 C         2.352111         1.067370        -0.619975
 O         2.023971        -0.179463        -1.298274
 H        -0.339339         0.331887        -0.634944
 H        -0.353724        -0.439969         0.871124
 H        -0.045096         1.239784         0.811084
 H         1.952487        -0.422585         2.136179
 H         1.328648        -1.815006         1.015372
 H         4.603108        -0.643564         2.175456
 H         5.345746        -1.403127         0.830367
 H         5.724490         0.784573         0.306623
 H         4.289331         2.158244        -0.772109
 H         1.742522         1.861059        -1.248907
