19
Iteration:   400
 C        -0.130664         0.410646         0.230699
 C         1.417382         0.028639         0.125195
 C         2.009899        -0.894833         1.145080
 O         3.360073        -1.283696         0.984136
 C         4.457564        -0.386166         1.318704
 C         4.864896         0.472369         0.253426
 C         3.948755         1.012922        -0.622518
 C         2.442233         0.844111        -0.619471
 O         1.942240        -0.386210        -1.163910
 H        -0.282183         0.987602         1.227569
 H        -0.222160         1.175452        -0.424419
 H        -0.864156        -0.444016         0.045844
 H         1.809720        -0.412405         2.089816
 H         1.482601        -1.853076         1.048750
 H         4.288664         0.236447         2.280936
 H         5.242615        -1.074805         1.557719
 H         5.909245         0.610802         0.071025
 H         4.510380         1.421978        -1.674308
 H         2.114037         1.689102        -1.271798
