19
Iteration:  4845charge 0 multiplicity 1
 C        -0.092887         0.427348         0.197111
 C         1.501246         0.004827         0.120130
 C         2.023776        -1.146696         0.976745
 O         3.380188        -1.560688         0.741727
 C         4.368666        -0.635208         1.316139
 C         4.793804         0.519378         0.403713
 C         3.937130         1.256926        -0.299660
 C         2.403735         1.089167        -0.473492
 O         2.040123        -0.079034        -1.268244
 H        -0.208249         1.297593         0.922970
 H        -0.529278         0.738482        -0.849544
 H        -0.778106        -0.363967         0.558799
 H         1.868193        -0.969607         2.147306
 H         1.501728        -1.990754         0.593471
 H         3.976300        -0.263097         2.301029
 H         5.100691        -1.490526         1.374913
 H         5.899968         0.605627         0.270339
 H         4.371699         2.025602        -0.995715
 H         1.801655         1.934344        -0.748935
