19
Iteration:  2731charge 0 multiplicity 1
 C         0.134223         0.524913         0.386560
 C         1.485360         0.019801         0.079590
 C         2.025905        -1.127094         0.955444
 O         3.371187        -1.440505         0.713669
 C         4.290016        -0.528564         1.301867
 C         4.694563         0.612717         0.558180
 C         3.964645         1.187845        -0.427450
 C         2.494300         0.876605        -0.681147
 O         1.865790        -0.285790        -1.245915
 H        -0.068153         1.570242         0.068510
 H        -0.693652         0.002824        -0.267030
 H         0.209961         0.406221         1.568339
 H         1.946369        -0.745860         1.992928
 H         1.447748        -2.058395         0.856273
 H         3.888513        -0.406957         2.302673
 H         5.151635        -1.070703         1.492857
 H         5.744710         0.827488         0.649435
 H         4.302890         2.043932        -1.042790
 H         2.155109         1.727579        -1.149588
