19
Iteration:  3692
 C         0.120406         0.630133         0.345521
 C         1.522261         0.001796         0.111712
 C         2.084900        -1.102025         0.993636
 O         3.386076        -1.448184         0.690542
 C         4.404693        -0.658898         1.280897
 C         4.619212         0.701017         0.602182
 C         3.820180         1.115632        -0.402710
 C         2.447362         0.867988        -0.657117
 O         1.909845        -0.307308        -1.298297
 H         0.026561         1.699402        -0.158261
 H        -0.820255         0.089765        -0.004505
 H        -0.107486         0.699952         1.450636
 H         1.936451        -0.842109         2.149077
 H         1.610744        -2.059616         0.777596
 H         4.221389        -0.625045         2.334173
 H         5.521981        -1.159497         1.200187
 H         5.552272         1.381813         0.741275
 H         4.209315         1.939589        -0.929279
 H         1.832604         1.761642        -1.095170
