19
Iteration:  3780charge 0 multiplicity 1
 C        -0.019555         0.176677         0.108877
 C         1.480132         0.069265         0.157926
 C         2.020084        -0.921702         1.149477
 O         3.298947        -1.437413         0.847161
 C         4.460198        -0.649170         1.236257
 C         4.866728         0.474727         0.278872
 C         3.952322         1.158583        -0.412553
 C         2.369652         1.048901        -0.451303
 O         1.905315        -0.068101        -1.215951
 H        -0.189285         0.642979        -0.822297
 H        -0.460829        -0.765865        -0.092964
 H        -0.362578         0.651473         1.028444
 H         2.070747        -0.319157         2.121891
 H         1.313203        -1.718398         1.264890
 H         4.063934        -0.208478         2.194858
 H         5.157254        -1.535446         1.171487
 H         6.024882         0.581321         0.087926
 H         4.432415         1.807886        -1.140215
 H         2.071476         2.145267        -0.679988
