19
Iteration:  2863
 C        -0.015687         0.339430         0.117096
 C         1.434329         0.061807         0.103702
 C         2.058025        -0.818644         1.224737
 O         3.314901        -1.449791         0.811068
 C         4.501185        -0.811023         1.038162
 C         4.693211         0.516224         0.444874
 C         3.856052         1.301832        -0.273728
 C         2.424896         0.969905        -0.652900
 O         2.013777        -0.275230        -1.180187
 H        -0.326379         0.977400        -0.854025
 H        -0.637015        -0.669611         0.174674
 H        -0.359228         1.025448         1.016366
 H         2.283203        -0.202656         2.216873
 H         1.504175        -1.759525         1.365327
 H         4.610966        -0.663567         2.185326
 H         5.287650        -1.452032         0.679372
 H         5.677137         0.942691         0.735713
 H         4.239241         2.288712        -0.475140
 H         1.982299         1.869023        -1.123401
