19
Iteration:   987charge 0 multiplicity 1
 C        -0.109571         0.333226         0.217348
 C         1.416731         0.071884        -0.076986
 C         2.147514        -0.516439         1.209679
 O         3.382992        -1.337008         1.084685
 C         4.602627        -0.727453         1.312638
 C         4.692039         0.527456         0.450389
 C         3.858942         1.027418        -0.383442
 C         2.411994         0.781333        -0.811993
 O         1.875341        -0.384114        -1.403573
 H        -0.343183         1.023253         0.967534
 H        -0.502556         0.689236        -0.767571
 H        -0.654032        -0.531797         0.468170
 H         2.199796         0.416567         1.794370
 H         1.546845        -1.231894         1.858090
 H         4.977560        -0.430960         2.376299
 H         5.414147        -1.400548         1.081864
 H         5.732302         0.986914         0.549307
 H         4.169082         1.879241        -0.901680
 H         2.025224         1.634022        -1.298019
