19
Iteration:  1871charge 0 multiplicity 1
 C         0.089026         0.339166         0.217882
 C         1.553032         0.064083         0.125579
 C         1.961629        -0.818872         1.275325
 O         3.299948        -1.389152         0.940103
 C         4.355333        -0.489362         1.301163
 C         4.796691         0.488026         0.247888
 C         3.899829         1.178004        -0.546347
 C         2.449163         0.890184        -0.766420
 O         1.930067        -0.451002        -1.204351
 H        -0.135962         1.360680         0.650659
 H        -0.211261         0.559026        -0.818771
 H        -0.535298        -0.393532         0.775620
 H         2.015923        -0.131256         2.145268
 H         1.209627        -1.590718         1.369267
 H         4.210767        -0.107647         2.294975
 H         5.255357        -1.150614         1.543618
 H         5.826797         0.898671         0.415235
 H         4.337372         1.954568        -1.102682
 H         2.035324         1.691580        -1.266612
