19
Iteration:  2940
 C         0.122657         0.367255         0.273779
 C         1.609140         0.055882         0.008967
 C         2.077266        -0.834780         1.100632
 O         3.267171        -1.502855         0.942884
 C         4.439028        -0.790158         1.093933
 C         4.574076         0.575596         0.466645
 C         3.806834         1.322815        -0.265226
 C         2.430280         0.981155        -0.735328
 O         1.981185        -0.327012        -1.291275
 H        -0.296147         1.489879        -0.009541
 H        -0.662915        -0.359608        -0.246408
 H         0.056858         0.320660         1.445185
 H         2.109274        -0.255361         2.120738
 H         1.317037        -1.597137         1.259918
 H         4.698244        -0.678172         2.145952
 H         5.224347        -1.398487         0.626743
 H         5.663348         0.939346         0.628836
 H         4.153662         2.278846        -0.496281
 H         1.995068         1.871282        -1.185516
