19
Iteration:  2977
 C         0.012523         0.323659         0.102230
 C         1.501551         0.056508         0.139557
 C         2.051605        -1.003365         1.168857
 O         3.301189        -1.579267         1.006494
 C         4.434810        -0.701566         1.148664
 C         4.695886         0.537050         0.253855
 C         3.839449         1.236917        -0.387774
 C         2.451849         1.058355        -0.552411
 O         2.040828        -0.093889        -1.240344
 H        -0.134837         1.134760        -0.668080
 H        -0.620575        -0.575982        -0.029621
 H        -0.280060         0.778476         1.093114
 H         1.985833        -0.378555         2.163007
 H         1.349522        -1.914875         1.175449
 H         4.414147        -0.424958         2.144106
 H         5.203649        -1.430719         1.027577
 H         5.726359         0.811025         0.123771
 H         4.123478         2.222821        -0.922187
 H         1.857834         1.929920        -0.796479
