19
Iteration:  4542charge 0 multiplicity 1
 C         0.088602         0.395082         0.350450
 C         1.516216         0.022035        -0.028844
 C         2.050389        -1.066129         0.977995
 O         3.401621        -1.597484         0.882775
 C         4.392591        -0.608270         1.418481
 C         4.721394         0.526719         0.523853
 C         3.973728         1.146795        -0.409975
 C         2.463632         1.060768        -0.673532
 O         1.731850        -0.060877        -1.433425
 H        -0.453506        -0.481515         0.043502
 H        -0.004644         0.597467         1.418391
 H        -0.181701         1.165941        -0.353987
 H         2.044629        -0.521130         1.921938
 H         1.411225        -2.006086         0.879721
 H         4.165161        -0.175746         2.528320
 H         5.304109        -1.189370         1.534677
 H         5.628339         0.999183         0.856977
 H         4.485466         1.895409        -0.938063
 H         1.928428         1.997045        -0.953596
