19
Iteration:  4766charge 0 multiplicity 1
 C         0.027757         0.282466         0.179877
 C         1.499977         0.075220        -0.016438
 C         2.077755        -0.944880         1.027553
 O         3.364426        -1.542743         0.902417
 C         4.434135        -0.812233         1.303245
 C         4.713259         0.447796         0.430404
 C         3.901773         1.267963        -0.271650
 C         2.410956         1.119085        -0.510787
 O         1.883363        -0.033103        -1.398138
 H        -0.291240        -0.432878         0.972283
 H        -0.030905         1.345248         0.337866
 H        -0.501323        -0.000669        -0.735825
 H         1.946683        -0.647554         2.104901
 H         1.450740        -1.813330         1.075109
 H         4.377846        -0.369572         2.316664
 H         5.266986        -1.550314         1.397303
 H         5.690547         0.778053         0.383238
 H         4.272557         2.158802        -0.773785
 H         2.010437         1.999136        -0.818454
