19
Iteration:  2269
 C         0.070732         0.359533         0.262786
 C         1.508640         0.084466         0.083675
 C         2.071291        -0.922373         1.113074
 O         3.406668        -1.384140         1.076741
 C         4.320563        -0.377715         1.401545
 C         4.805679         0.530116         0.291741
 C         4.015913         0.974772        -0.643055
 C         2.452940         0.856965        -0.700666
 O         1.745462        -0.286978        -1.313620
 H        -0.161293         0.503551         1.263480
 H        -0.339522         1.274797        -0.083972
 H        -0.561722        -0.568814         0.037998
 H         1.897147        -0.543038         2.107657
 H         1.433719        -1.799624         1.002694
 H         3.923604         0.226926         2.268603
 H         5.157892        -0.951455         1.894923
 H         5.893126         0.679414         0.299235
 H         4.249705         1.583199        -1.498803
 H         2.071478         1.735998        -1.171896
