19
Iteration:  4351
 C         0.092174         0.436626         0.122355
 C         1.523124        -0.041042         0.050397
 C         2.040258        -1.027892         1.110445
 O         3.301269        -1.531178         0.788952
 C         4.457183        -0.775764         1.138220
 C         4.646217         0.492323         0.433632
 C         3.837831         1.361539        -0.248007
 C         2.421089         1.080921        -0.496969
 O         2.016757        -0.156042        -1.224321
 H        -0.421995        -0.182716         0.849652
 H         0.065826         1.441419         0.373937
 H        -0.618670         0.227559        -0.724440
 H         1.938275        -0.517338         2.059357
 H         1.371361        -1.937457         0.787113
 H         4.405337        -0.516602         2.174507
 H         5.181594        -1.520747         1.011336
 H         5.702847         0.835057         0.530107
 H         4.183256         2.346631        -0.465645
 H         1.838445         1.971114        -0.911728
