19
Iteration:  3782charge 0 multiplicity 1
 C        -0.030555         0.176360         0.091693
 C         1.474858         0.070777         0.157156
 C         2.020810        -0.936297         1.159983
 O         3.289393        -1.436211         0.843565
 C         4.453222        -0.638314         1.234270
 C         4.877081         0.474258         0.264349
 C         3.947256         1.155102        -0.414701
 C         2.398883         1.049770        -0.455538
 O         1.897042        -0.064051        -1.195421
 H        -0.200182         0.629220        -0.921385
 H        -0.395818        -0.750460        -0.045891
 H        -0.388033         0.640363         1.002210
 H         2.069246        -0.318076         2.182250
 H         1.320548        -1.741030         1.250580
 H         4.162518        -0.217568         2.192472
 H         5.186224        -1.549490         1.201144
 H         6.010606         0.594535         0.087961
 H         4.425308         1.876682        -1.102060
 H         2.070871         2.101095        -0.620491
