19
Iteration:  2891charge 0 multiplicity 1
 C         0.056385         0.359243         0.157246
 C         1.455384         0.050052         0.093028
 C         2.150283        -0.668228         1.200308
 O         3.306715        -1.385880         0.632402
 C         4.506764        -0.832501         1.084152
 C         4.705612         0.588998         0.632600
 C         3.820350         1.180770        -0.197648
 C         2.372845         0.903044        -0.660324
 O         1.879661        -0.377431        -1.218979
 H        -0.046509         1.132536        -0.448399
 H        -0.454006        -0.387184        -0.302704
 H        -0.338325         0.619368         1.062781
 H         2.449271         0.063226         1.879828
 H         1.630805        -1.482195         1.692579
 H         4.485625        -0.848893         2.268433
 H         5.414278        -1.429975         0.657034
 H         5.613938         1.087008         0.810236
 H         4.314015         2.073436        -0.725171
 H         2.074112         1.876014        -1.184988
