19
Iteration:  4222
 C         0.063132         0.310419         0.129601
 C         1.577700         0.041402         0.181657
 C         1.955660        -1.168221         1.141188
 O         3.289257        -1.482460         0.879557
 C         4.361610        -0.649706         1.229007
 C         4.680088         0.461304         0.272933
 C         3.910299         1.328248        -0.407688
 C         2.432904         1.109999        -0.513544
 O         2.054747        -0.079259        -1.227470
 H        -0.448254        -0.512457        -0.345976
 H        -0.406445         0.386393         1.101291
 H        -0.116538         1.324097        -0.377700
 H         1.769883        -0.809777         2.177594
 H         1.340444        -2.028386         1.042851
 H         4.198208        -0.212890         2.163013
 H         5.142048        -1.424207         1.308697
 H         5.854818         0.575447         0.056423
 H         4.473862         1.932743        -1.049790
 H         1.860616         2.035205        -0.863870
