19
Iteration:  2010
 C        -0.042281         0.171268         0.078018
 C         1.526706         0.078133         0.080230
 C         2.042667        -0.609767         1.280008
 O         3.280944        -1.437367         1.121259
 C         4.543427        -0.631459         1.264539
 C         4.796443         0.395721         0.221620
 C         3.899306         1.148016        -0.443060
 C         2.374952         1.017427        -0.725233
 O         1.893011        -0.291310        -1.259787
 H        -0.504978         0.546704         1.073305
 H        -0.357915         0.852170        -0.695386
 H        -0.307559        -0.792703        -0.138723
 H         2.129192         0.244402         2.019522
 H         1.425888        -1.414612         1.718172
 H         4.704054        -0.160412         2.195814
 H         5.351406        -1.354081         1.223155
 H         5.810772         0.643423         0.151827
 H         4.399817         1.903126        -1.036031
 H         1.812718         1.828998        -1.321614
