19
Iteration:  4427
 C        -0.024143         0.267358         0.218032
 C         1.486789         0.071691         0.016453
 C         2.049401        -1.021702         1.036530
 O         3.357849        -1.534708         0.857205
 C         4.362562        -0.736677         1.252207
 C         4.792871         0.409566         0.385590
 C         3.886583         1.208687        -0.303108
 C         2.461818         1.124281        -0.453139
 O         1.990281         0.062792        -1.353303
 H        -0.453881        -0.559342         0.866882
 H        -0.464625         1.158961         0.579150
 H        -0.551046        -0.000355        -0.767328
 H         1.858003        -0.501913         2.008511
 H         1.332997        -1.927772         0.916326
 H         4.200610        -0.386493         2.372087
 H         5.182650        -1.461087         1.503794
 H         5.880799         0.662726         0.179838
 H         4.188415         2.044517        -0.957877
 H         2.018254         2.125110        -0.559542
