19
Iteration:  4419
 C        -0.001764         0.159978         0.213113
 C         1.507028         0.083991        -0.004540
 C         2.042553        -0.928372         1.058250
 O         3.285470        -1.523140         0.874236
 C         4.455383        -0.744218         1.292423
 C         4.798622         0.402303         0.361962
 C         3.929840         1.191615        -0.242664
 C         2.433369         1.082848        -0.463269
 O         1.914378         0.128643        -1.394671
 H        -0.242616        -0.676005         0.778767
 H        -0.400598         1.095725         0.567893
 H        -0.422216        -0.069290        -0.737388
 H         1.973138        -0.466548         2.071825
 H         1.317185        -1.835784         0.839921
 H         4.117765        -0.367640         2.218305
 H         5.202935        -1.445769         1.381367
 H         5.909024         0.426951         0.207017
 H         4.371361         2.035287        -0.862977
 H         1.942657         2.122929        -0.683848
