19
Iteration:  4771
 C         0.013782         0.244839         0.172732
 C         1.520011         0.129407        -0.000503
 C         2.124983        -0.962811         1.040303
 O         3.365253        -1.564166         0.937454
 C         4.426654        -0.783241         1.303835
 C         4.700346         0.400944         0.416358
 C         3.874814         1.228051        -0.315374
 C         2.381889         1.132994        -0.508989
 O         1.930704         0.006320        -1.412774
 H        -0.381761        -0.351825         0.991236
 H        -0.116102         1.361542         0.273637
 H        -0.644578        -0.086852        -0.649761
 H         2.002838        -0.556190         2.055945
 H         1.432825        -1.858712         1.038159
 H         4.236711        -0.407740         2.348360
 H         5.202407        -1.563085         1.288072
 H         5.778094         0.828692         0.434450
 H         4.302675         2.160805        -0.724919
 H         1.890298         2.193566        -0.716420
