19
Iteration:  3176
 C         0.090268         0.295248         0.235810
 C         1.522646         0.009409         0.008794
 C         2.044024        -1.131733         1.036843
 O         3.376026        -1.470192         0.977550
 C         4.369610        -0.522203         1.360117
 C         4.784908         0.416066         0.225653
 C         3.898278         1.106047        -0.461491
 C         2.384279         1.063095        -0.433058
 O         1.900662         0.058906        -1.335806
 H        -0.357038         0.887639        -0.532824
 H        -0.652043        -0.623930         0.359851
 H        -0.078838         0.933185         1.284644
 H         1.592981        -0.936639         2.099437
 H         1.574912        -2.100651         0.687108
 H         4.002468         0.061188         2.224461
 H         5.163664        -1.147735         1.751555
 H         5.925691         0.491387         0.076435
 H         4.287936         1.687121        -1.229513
 H         1.935443         1.980331        -0.623681
