19
Iteration:   679charge 0 multiplicity 1
 C         0.021617         0.522861         0.087619
 C         1.516713         0.006025         0.083401
 C         1.984781        -0.880721         1.312548
 O         3.356787        -1.456466         1.126182
 C         4.491248        -0.610445         1.229920
 C         4.707000         0.553366         0.276763
 C         3.796808         1.192348        -0.558256
 C         2.391233         0.905734        -0.784364
 O         2.010086        -0.422619        -1.184914
 H        -0.039660         1.314025         0.857944
 H        -0.157125         1.013985        -0.811423
 H        -0.660032        -0.311102         0.233158
 H         1.798621        -0.286958         2.247080
 H         1.417987        -1.915138         1.412355
 H         4.542782        -0.095869         2.196548
 H         5.299759        -1.254226         1.251215
 H         5.732828         0.964525         0.362695
 H         4.357807         2.132447        -1.062299
 H         1.870537         1.694917        -1.471072
