19
Iteration:  1478charge 0 multiplicity 1
 C         0.025809         0.295179         0.113680
 C         1.520305         0.078674         0.121595
 C         2.045330        -0.676028         1.362457
 O         3.189914        -1.425185         1.045358
 C         4.425982        -0.627854         1.218883
 C         4.710060         0.534113         0.274881
 C         3.888182         1.205484        -0.543646
 C         2.432298         0.882441        -0.797559
 O         2.085342        -0.409990        -1.209018
 H        -0.255497         0.895794         1.018641
 H        -0.560126         0.827767        -0.604308
 H        -0.596446        -0.598413         0.207417
 H         2.234707        -0.004674         2.179764
 H         1.313743        -1.427489         1.837744
 H         4.545172        -0.215020         2.266050
 H         5.245857        -1.231033         0.956921
 H         5.820758         0.631546         0.195352
 H         4.470586         1.972558        -1.190275
 H         1.747871         1.674725        -1.208843
