19
Iteration:   429
 C         0.247167         0.425384         0.268979
 C         1.660637         0.021062         0.122564
 C         2.035012        -0.882773         1.264144
 O         3.291781        -1.494248         1.105632
 C         4.325799        -0.441596         1.354354
 C         4.613565         0.509389         0.186225
 C         3.859373         1.175197        -0.637856
 C         2.379532         0.919674        -0.795255
 O         1.910177        -0.418760        -1.288262
 H         0.192542         0.767785         1.304530
 H         0.088385         1.246989        -0.528247
 H        -0.414062        -0.406520         0.068310
 H         2.026569        -0.167003         2.196585
 H         1.314800        -1.685927         1.316563
 H         3.970563         0.188116         2.175149
 H         5.310377        -1.028539         1.645613
 H         5.664451         0.803886         0.280149
 H         4.331724         1.933855        -1.377133
 H         1.773464         1.699543        -1.275228
