19
Iteration:  4070
 C         0.116758         0.578376         0.377725
 C         1.501632        -0.012344         0.107587
 C         1.968502        -1.249405         0.992409
 O         3.340533        -1.436307         0.688499
 C         4.246724        -0.509979         1.314060
 C         4.711834         0.629371         0.443209
 C         3.961528         1.182146        -0.468344
 C         2.513551         0.948401        -0.650496
 O         1.975661        -0.322541        -1.217819
 H         0.102309         1.645669         0.034071
 H        -0.781841         0.071117         0.041645
 H         0.035632         0.640467         1.559229
 H         1.755008        -1.211718         2.117267
 H         1.495042        -2.053502         0.518089
 H         3.792299        -0.099703         2.223778
 H         5.140759        -1.134971         1.725172
 H         5.802654         0.989596         0.723957
 H         4.325716         2.156308        -0.764251
 H         1.976147         1.805738        -1.075854
