19
Iteration:  1900charge 0 multiplicity 1
 C        -0.028265         0.375703         0.264890
 C         1.478631         0.073812        -0.020784
 C         2.135312        -0.671737         1.202310
 O         3.402954        -1.385032         1.006439
 C         4.494589        -0.628758         1.373263
 C         4.630960         0.578308         0.472102
 C         3.859475         1.045025        -0.486539
 C         2.421461         0.855566        -0.807387
 O         1.888757        -0.455731        -1.360338
 H         0.036334         1.385069         0.885221
 H        -0.541210         0.661159        -0.643918
 H        -0.559293        -0.220313         0.930362
 H         2.208985         0.183079         1.903364
 H         1.336804        -1.347986         1.481560
 H         4.625456        -0.554027         2.515522
 H         5.272859        -1.281075         0.878278
 H         5.567124         1.025579         0.484395
 H         4.305260         1.757438        -1.266847
 H         2.118048         1.769255        -1.439744
