19
Iteration:    64charge 0 multiplicity 1
 C         0.124235         0.411955         0.129136
 C         1.551478        -0.067849         0.009918
 C         2.106633        -0.683288         1.308434
 O         3.266642        -1.451435         1.144507
 C         4.478722        -0.700447         1.147038
 C         4.659466         0.573372         0.265147
 C         3.779172         1.274971        -0.396187
 C         2.398525         0.947257        -0.664443
 O         1.951538        -0.467752        -1.321174
 H         0.139571         1.453116         0.679073
 H        -0.260094         0.598627        -0.790256
 H        -0.593527        -0.299864         0.715476
 H         2.042474         0.045578         2.145774
 H         1.302753        -1.370818         1.618807
 H         4.789352        -0.438832         2.210143
 H         5.190381        -1.453457         0.802988
 H         5.695091         0.859115         0.323927
 H         4.231691         1.978383        -1.188562
 H         1.735932         1.725307        -1.233392
