19
Iteration:  4127
 C         0.153392         0.406614         0.411812
 C         1.560434         0.082850        -0.040496
 C         2.090325        -1.092790         0.934627
 O         3.430960        -1.536914         0.961645
 C         4.376084        -0.633174         1.456399
 C         4.651599         0.559035         0.556818
 C         3.949492         1.164432        -0.436798
 C         2.464633         0.962787        -0.792874
 O         1.677791        -0.097305        -1.459166
 H        -0.322579         0.840781        -0.433789
 H        -0.442592        -0.529305         0.685346
 H         0.185568         1.181310         1.224086
 H         1.838574        -0.632392         1.903207
 H         1.398131        -1.975422         0.884001
 H         4.115258        -0.396953         2.551223
 H         5.324741        -1.291854         1.475289
 H         5.596809         1.076681         0.735467
 H         4.456138         1.924770        -1.009679
 H         2.100270         2.025039        -1.099098
