19
Iteration:  4533
 C         0.167011         0.394512         0.370818
 C         1.559313         0.042998        -0.031897
 C         2.090900        -1.063367         0.930611
 O         3.371816        -1.516130         0.844161
 C         4.413597        -0.671514         1.470104
 C         4.665856         0.577825         0.601652
 C         3.929895         1.068871        -0.434224
 C         2.435850         0.999807        -0.721399
 O         1.726534        -0.040474        -1.451602
 H        -0.442117        -0.605168         0.372955
 H         0.208719         0.811746         1.385751
 H        -0.501001         1.106211        -0.234655
 H         1.933367        -0.585213         1.980922
 H         1.474081        -1.954719         1.052770
 H         4.038114        -0.301698         2.437520
 H         5.368263        -1.320698         1.484978
 H         5.613237         1.101396         0.908172
 H         4.326152         1.952798        -0.860364
 H         2.200420         1.985000        -1.013239
