19
Iteration:  1558charge 0 multiplicity 1
 C         0.122053         0.394670         0.154244
 C         1.573976         0.040114         0.096848
 C         2.057131        -0.648673         1.313817
 O         3.212956        -1.370700         1.064767
 C         4.393276        -0.735443         1.153792
 C         4.623346         0.583898         0.316832
 C         3.800400         1.241747        -0.527207
 C         2.394240         0.896168        -0.823014
 O         2.088160        -0.528365        -1.139099
 H        -0.141992         0.581887         1.174818
 H        -0.058783         1.227474        -0.530927
 H        -0.460458        -0.499876        -0.303205
 H         2.187075         0.056501         2.138867
 H         1.413793        -1.483781         1.624989
 H         4.782696        -0.473694         2.197209
 H         5.244660        -1.435673         0.882860
 H         5.611507         1.016541         0.400500
 H         4.088640         2.053753        -1.134716
 H         1.884516         1.537871        -1.435575
