19
Iteration:   841
 C         0.133256         0.201395         0.409281
 C         1.547032         0.099309        -0.002823
 C         2.048641        -0.765577         1.138594
 O         3.299796        -1.375591         1.137158
 C         4.354121        -0.467080         1.442175
 C         4.744115         0.454880         0.325136
 C         3.914007         0.955107        -0.628324
 C         2.473906         0.965396        -0.887411
 O         1.844215        -0.230193        -1.379227
 H         0.042169         0.354761         1.527649
 H        -0.519275         0.906574        -0.067276
 H        -0.327238        -0.776035         0.120697
 H         1.756848        -0.257292         2.144822
 H         1.291160        -1.594597         1.141570
 H         4.122188         0.072426         2.321605
 H         5.282015        -1.084096         1.753033
 H         5.800235         0.738621         0.167468
 H         4.499779         1.564842        -1.465138
 H         2.110714         1.921448        -1.293509
