19
Iteration:  3509
 C         0.031957         0.517691         0.388789
 C         1.522000         0.015760         0.012231
 C         2.130728        -0.953770         0.992674
 O         3.385221        -1.482621         0.718449
 C         4.451560        -0.659929         1.293105
 C         4.720379         0.612202         0.614916
 C         3.891147         1.161803        -0.332019
 C         2.425365         0.888700        -0.722774
 O         1.787589        -0.293891        -1.338804
 H        -0.052652         1.686435         0.087410
 H        -0.651507        -0.279497        -0.152576
 H        -0.106342         0.496250         1.532707
 H         2.114305        -0.402302         2.007298
 H         1.354103        -1.724087         1.123068
 H         4.255780        -0.465762         2.305394
 H         5.299111        -1.239172         1.231170
 H         5.718209         1.059221         0.831711
 H         4.181222         2.065101        -0.800100
 H         1.988995         1.703837        -1.176230
