19
Iteration:  2578
 C         0.067229         0.426197         0.263854
 C         1.594514         0.003834         0.084931
 C         2.027695        -0.956340         1.112492
 O         3.339995        -1.615622         1.049149
 C         4.430366        -0.568582         1.307075
 C         4.638763         0.577851         0.301727
 C         3.853729         1.257919        -0.472916
 C         2.417743         0.940906        -0.694441
 O         1.957135        -0.242971        -1.323713
 H        -0.419439        -0.147855         0.977683
 H        -0.031456         1.552545         0.561762
 H        -0.398222         0.474494        -0.757040
 H         1.892059        -0.459832         2.136522
 H         1.227380        -1.748093         0.965135
 H         4.315405        -0.085076         2.358953
 H         5.371472        -1.315707         1.285220
 H         5.727364         0.857772         0.146079
 H         4.254903         1.973177        -1.156194
 H         1.893550         1.917890        -0.915633
