19
Iteration:   331
 C         0.123252         0.454800         0.408334
 C         1.575483        -0.019334        -0.041526
 C         2.055645        -0.884744         1.169152
 O         3.336396        -1.482461         1.197522
 C         4.358794        -0.476535         1.326893
 C         4.622177         0.531292         0.248298
 C         3.838373         1.151654        -0.617319
 C         2.386054         0.977345        -0.825732
 O         1.966513        -0.426796        -1.313705
 H         0.377336         0.929211         1.334720
 H        -0.199967         1.277624        -0.334471
 H        -0.545069        -0.360324         0.531963
 H         2.020660        -0.254507         2.054165
 H         1.383461        -1.693045         1.189894
 H         4.184007         0.103257         2.286711
 H         5.336593        -1.078964         1.425357
 H         5.725378         0.700217         0.186143
 H         4.411366         1.833327        -1.398942
 H         1.884767         1.738824        -1.391309
