19
Iteration:  2866
 C        -0.019873         0.353023         0.103971
 C         1.442224         0.062292         0.094301
 C         2.092399        -0.802771         1.250620
 O         3.297225        -1.436986         0.774729
 C         4.503605        -0.816748         1.056551
 C         4.693254         0.514579         0.462974
 C         3.856141         1.300155        -0.280854
 C         2.422822         0.949021        -0.651336
 O         1.989387        -0.286495        -1.179347
 H        -0.365099         0.953621        -0.800631
 H        -0.566104        -0.606428         0.107335
 H        -0.315852         0.933772         0.982746
 H         2.273997        -0.212557         2.198784
 H         1.553973        -1.773744         1.387269
 H         4.639702        -0.676306         2.269455
 H         5.298168        -1.415257         0.641424
 H         5.719908         0.997751         0.744313
 H         4.193139         2.296767        -0.421504
 H         2.038432         1.833577        -1.033173
