19
Iteration:   379charge 0 multiplicity 1
 C        -0.059364         0.369388         0.158870
 C         1.441262         0.073045         0.123286
 C         2.004211        -0.901456         1.237104
 O         3.382149        -1.162973         0.928932
 C         4.506813        -0.441996         1.422060
 C         4.969817         0.451743         0.269320
 C         3.942862         0.909774        -0.628611
 C         2.459046         0.838838        -0.653457
 O         1.702470        -0.332735        -1.206848
 H        -0.336476         0.828536         1.186420
 H        -0.341959         0.862143        -0.691014
 H        -0.341821        -0.743188         0.072071
 H         1.868235        -0.509467         2.187221
 H         1.628530        -1.932765         1.032062
 H         4.128507         0.144747         2.271948
 H         5.244388        -1.068902         1.730231
 H         6.010126         0.670099         0.051129
 H         4.404566         1.761423        -1.335113
 H         2.146581         1.803790        -1.157278
