19
Iteration:  1000charge 0 multiplicity 1
 C        -0.081637         0.321542         0.092553
 C         1.442493        -0.012751        -0.005444
 C         2.130345        -0.571979         1.256397
 O         3.309942        -1.306576         1.118756
 C         4.656401        -0.697227         1.258282
 C         4.829730         0.499267         0.441183
 C         3.838870         1.066278        -0.397063
 C         2.389469         0.896803        -0.841076
 O         1.821565        -0.410498        -1.305598
 H        -0.280122         0.881148         0.914641
 H        -0.479700         0.839345        -0.800466
 H        -0.566916        -0.600499         0.174166
 H         2.370867         0.288290         1.945644
 H         1.308346        -1.201830         1.745124
 H         4.845739        -0.620648         2.334119
 H         5.225309        -1.449087         0.850317
 H         5.697618         1.076442         0.543188
 H         4.198180         1.976857        -0.867180
 H         2.049836         1.726058        -1.463033
