19
Iteration:  4850
 C        -0.044641         0.473537         0.230815
 C         1.488222         0.002904         0.059113
 C         2.030968        -1.158383         0.980307
 O         3.395914        -1.542912         0.705859
 C         4.374011        -0.641511         1.322016
 C         4.760836         0.526624         0.465167
 C         3.905373         1.269518        -0.344059
 C         2.428604         1.086888        -0.442673
 O         2.021169        -0.136771        -1.250121
 H        -0.275878         1.394995         0.721095
 H        -0.519874         0.689236        -0.657293
 H        -0.744231        -0.322318         0.521608
 H         1.868482        -0.907066         1.981792
 H         1.445161        -2.026338         0.512909
 H         4.031659        -0.344013         2.305520
 H         5.128953        -1.391980         1.397485
 H         5.838964         0.620392         0.346894
 H         4.478551         1.946989        -0.949664
 H         1.709874         1.975763        -0.681518
