19
Iteration:  4053
 C         0.094405         0.471611         0.312577
 C         1.569061         0.059502         0.170861
 C         2.015892        -1.123507         0.937084
 O         3.363794        -1.446535         0.737903
 C         4.281680        -0.540722         1.329311
 C         4.780132         0.529216         0.380814
 C         3.949085         1.184049        -0.406300
 C         2.463168         0.878030        -0.601198
 O         1.886522        -0.194302        -1.209426
 H        -0.097044         1.437289        -0.108899
 H        -0.350109        -0.371132        -0.260851
 H        -0.279035         0.516475         1.281777
 H         1.744512        -0.949001         1.982397
 H         1.319423        -2.025363         0.645222
 H         3.753872         0.006537         2.236369
 H         5.037064        -1.135198         1.776913
 H         5.704131         0.948387         0.589711
 H         4.307113         1.965360        -1.088706
 H         1.965922         1.833938        -0.951669
