19
Iteration:  3014
 C        -0.030465         0.219183         0.231187
 C         1.455932         0.073666         0.063085
 C         2.039172        -0.930815         1.061122
 O         3.332375        -1.363923         0.761939
 C         4.408317        -0.648053         1.313769
 C         4.845570         0.404524         0.317017
 C         3.909063         1.107281        -0.354097
 C         2.417466         1.043563        -0.447978
 O         1.937601        -0.064123        -1.257170
 H        -0.324827         0.459095        -0.707649
 H        -0.392056        -0.727877         0.446196
 H        -0.425436         0.897212         0.888632
 H         2.079102        -0.526768         2.096972
 H         1.370855        -1.799196         1.170968
 H         4.144640        -0.158184         2.260433
 H         5.281312        -1.325125         1.592143
 H         5.910464         0.412383         0.015640
 H         4.262097         1.832018        -1.048728
 H         2.178965         2.036162        -0.962366
