19
Iteration:  2339
 C         0.082679         0.506033         0.196841
 C         1.441503         0.079150         0.121911
 C         2.100220        -0.903372         1.237295
 O         3.327588        -1.472158         0.985480
 C         4.394273        -0.579584         1.250427
 C         4.705930         0.624948         0.385076
 C         3.914495         1.239781        -0.577016
 C         2.441746         0.797216        -0.849017
 O         1.934422        -0.468308        -1.181528
 H         0.007383         1.484901         0.774431
 H        -0.195322         0.945038        -0.811828
 H        -0.654046        -0.220951         0.636903
 H         2.176907        -0.461987         2.276663
 H         1.404894        -1.761762         1.379138
 H         4.337598        -0.379243         2.337291
 H         5.176555        -1.273382         1.177971
 H         5.608907         1.251904         0.554327
 H         4.185510         2.245242        -0.943304
 H         1.736670         1.507431        -1.390456
