19
Iteration:  1968
 C         0.060710         0.405405         0.100366
 C         1.499691         0.045144         0.069244
 C         2.023192        -0.709026         1.312222
 O         3.219689        -1.431795         0.965608
 C         4.427457        -0.634231         1.190084
 C         4.657169         0.616381         0.276313
 C         3.806371         1.214160        -0.538854
 C         2.399434         0.893671        -0.736989
 O         2.171229        -0.511346        -1.035668
 H        -0.173037         0.911175         1.196387
 H        -0.070551         1.270625        -0.570545
 H        -0.656059        -0.337023         0.079964
 H         2.225691        -0.215475         2.316915
 H         1.262557        -1.474526         1.384757
 H         4.661528        -0.634718         2.304941
 H         5.174499        -1.356866         0.682695
 H         5.694140         0.944020         0.338715
 H         4.177514         1.944273        -1.201320
 H         1.907089         1.525832        -1.431482
