19
Iteration:  2807charge 0 multiplicity 1
 C         0.111667         0.303421         0.162042
 C         1.564623        -0.012483         0.035675
 C         2.056984        -0.958916         1.120113
 O         3.292442        -1.625021         1.123371
 C         4.437351        -0.692878         1.141712
 C         4.694393         0.446331         0.239648
 C         3.769613         1.274900        -0.352482
 C         2.407432         1.116612        -0.568254
 O         2.008940        -0.015838        -1.341376
 H        -0.314925         0.436635        -0.877812
 H        -0.402493        -0.621147         0.688039
 H        -0.191680         1.217087         0.846307
 H         1.840566        -0.479152         2.174516
 H         1.260860        -1.704988         1.139727
 H         4.432324        -0.483792         2.327027
 H         5.229081        -1.413260         1.044893
 H         5.687178         0.800249         0.279843
 H         4.253381         2.234660        -0.736398
 H         1.827948         2.017248        -0.700647
