19
Iteration:   579charge 0 multiplicity 1
 C         0.057005         0.354149         0.228188
 C         1.547272        -0.019496        -0.022001
 C         2.096133        -0.759316         1.232265
 O         3.314314        -1.433430         1.401689
 C         4.538191        -0.681643         1.225310
 C         4.677003         0.496018         0.316090
 C         3.792853         1.175242        -0.520602
 C         2.409678         0.883577        -0.811757
 O         1.888049        -0.249831        -1.509817
 H        -0.017108         0.785880         1.180753
 H        -0.265307         1.090465        -0.563709
 H        -0.497791        -0.530884         0.185305
 H         1.864129        -0.001329         2.017909
 H         1.349674        -1.564192         1.567801
 H         4.773887        -0.100533         2.134040
 H         5.266605        -1.374791         1.119358
 H         5.716025         0.935853         0.340912
 H         4.235247         1.969428        -1.011266
 H         1.862182         1.805791        -0.969180
