19
Iteration:  4135charge 0 multiplicity 1
 C         0.103983         0.378945         0.357639
 C         1.558974         0.084615         0.000743
 C         2.086646        -1.017607         0.940335
 O         3.384275        -1.604383         0.969185
 C         4.397714        -0.599953         1.437556
 C         4.685556         0.598628         0.550030
 C         3.962803         1.112900        -0.431211
 C         2.465442         0.981731        -0.696020
 O         1.700721        -0.080324        -1.496321
 H        -0.571297         0.605005        -0.474721
 H        -0.328646        -0.493065         0.853259
 H         0.129030         1.139733         1.219271
 H         1.877065        -0.689743         2.035331
 H         1.505157        -1.816154         0.682498
 H         4.143107        -0.304050         2.567902
 H         5.374724        -1.144964         1.318780
 H         5.813470         0.944792         0.482997
 H         4.359207         1.880004        -1.051674
 H         2.144925         1.835962        -1.076673
