19
Iteration:  1607charge 0 multiplicity 1
 C         0.027020         0.396257         0.084691
 C         1.526304         0.013081         0.106464
 C         2.030241        -0.740778         1.295684
 O         3.256147        -1.403290         1.045597
 C         4.503530        -0.587797         1.212395
 C         4.705175         0.495358         0.284567
 C         3.852311         1.168448        -0.526152
 C         2.381687         0.908854        -0.686302
 O         2.007484        -0.431055        -1.176441
 H        -0.042757         1.380548         0.638611
 H        -0.251993         0.460674        -0.984101
 H        -0.667659        -0.310536         0.490257
 H         2.120916        -0.127244         2.208881
 H         1.326834        -1.559867         1.448560
 H         4.752930        -0.204654         2.210363
 H         5.368882        -1.321288         1.122545
 H         5.732937         0.875739         0.187061
 H         4.279419         2.058056        -1.149561
 H         1.790177         1.720942        -1.285969
