19
Iteration:  2996
 C        -0.037118         0.253822         0.082266
 C         1.521374         0.049061         0.106639
 C         2.037282        -0.929416         1.143872
 O         3.335858        -1.457899         0.849066
 C         4.459150        -0.681145         1.258752
 C         4.790982         0.370359         0.228039
 C         3.949481         1.217703        -0.323994
 C         2.360097         1.127743        -0.465961
 O         1.928893        -0.120846        -1.222511
 H        -0.345417         0.842578        -0.978898
 H        -0.547353        -0.804436         0.363706
 H        -0.360923         0.876728         1.058043
 H         1.823783        -0.488703         2.127210
 H         1.380613        -1.793712         1.038219
 H         4.428829        -0.065562         2.292528
 H         5.306956        -1.346101         1.435471
 H         5.889570         0.637684         0.057505
 H         4.350039         1.965463        -1.000935
 H         1.810681         2.014170        -0.732837
