19
Iteration:  2655
 C         0.051805         0.307627         0.388691
 C         1.557695         0.033234         0.074908
 C         2.013988        -1.049234         1.036363
 O         3.388491        -1.447017         0.908942
 C         4.351787        -0.510546         1.389355
 C         4.721458         0.477761         0.361887
 C         3.960469         1.055673        -0.521605
 C         2.449214         0.959296        -0.631165
 O         1.866323        -0.027097        -1.395516
 H        -0.071989         1.111157         1.097262
 H        -0.397557         0.407816        -0.669877
 H        -0.458481        -0.642547         0.803991
 H         1.800751        -0.686693         2.046072
 H         1.443753        -1.984229         0.843644
 H         3.882523         0.025226         2.272606
 H         5.156453        -1.098417         1.888691
 H         5.738759         0.802960         0.336450
 H         4.303501         1.873198        -1.167131
 H         2.196888         1.969324        -0.816046
