19
Iteration:  3442charge 0 multiplicity 1
 C         0.018440         0.297209         0.246965
 C         1.538456         0.077909         0.106520
 C         2.063915        -0.956109         1.123536
 O         3.243237        -1.577653         0.849845
 C         4.459030        -0.739392         1.195999
 C         4.712098         0.530268         0.318893
 C         3.889321         1.344161        -0.322542
 C         2.401458         1.091660        -0.635917
 O         2.020675        -0.212113        -1.245096
 H        -0.472534         0.902763        -0.678463
 H        -0.513100        -0.673301         0.441029
 H        -0.198763         1.099801         1.063718
 H         2.072560        -0.503598         2.107091
 H         1.317215        -1.723191         1.192919
 H         4.288935        -0.357550         2.204137
 H         5.268656        -1.396959         1.135873
 H         5.729062         0.860249         0.303321
 H         4.368159         2.242482        -0.773796
 H         1.872378         1.906028        -1.035430
