19
Iteration:  2586charge 0 multiplicity 1
 C         0.065873         0.430741         0.215929
 C         1.592998        -0.024988         0.091312
 C         1.964744        -0.993472         1.133649
 O         3.361346        -1.586528         1.021827
 C         4.414857        -0.575674         1.288307
 C         4.701005         0.566932         0.305539
 C         3.878967         1.264833        -0.563960
 C         2.422970         0.989772        -0.616312
 O         1.931852        -0.224660        -1.265487
 H        -0.564714        -0.115759         1.040217
 H         0.100440         1.549336         0.364224
 H        -0.448820         0.148889        -0.847544
 H         1.850122        -0.589078         2.134602
 H         1.384249        -1.887730         1.083585
 H         4.181707        -0.100153         2.315970
 H         5.216398        -1.235905         1.545102
 H         5.805976         0.809894         0.060279
 H         4.299015         2.094816        -1.132765
 H         1.935521         1.874234        -0.876695
