19
Iteration:  1533
 C        -0.065069         0.281814         0.146549
 C         1.462920         0.039873         0.012660
 C         2.129568        -0.481192         1.312106
 O         3.303805        -1.440482         1.120080
 C         4.533489        -0.706001         1.204404
 C         4.696144         0.545073         0.399752
 C         3.861715         1.075150        -0.438272
 C         2.447817         0.872728        -0.848731
 O         1.910925        -0.414235        -1.311100
 H        -0.324488         0.409020         1.271258
 H        -0.307092         1.220496        -0.380646
 H        -0.699159        -0.463231        -0.414214
 H         2.469789         0.383482         1.903191
 H         1.477006        -1.183900         1.978335
 H         4.936470        -0.459632         2.251105
 H         5.346762        -1.243917         0.914663
 H         5.663496         1.052954         0.521446
 H         4.161806         2.099374        -0.999113
 H         1.980931         1.790669        -1.408193
