19
Iteration:  3284charge 0 multiplicity 1
 C         0.009348         0.484113         0.265943
 C         1.498235         0.071627         0.144238
 C         2.087260        -0.954931         1.040541
 O         3.442933        -1.328675         0.646172
 C         4.480399        -0.711823         1.290310
 C         4.692734         0.592811         0.603640
 C         3.899732         1.104329        -0.351596
 C         2.445122         0.859840        -0.674823
 O         1.778055        -0.313654        -1.308708
 H        -0.126009         1.402127        -0.253986
 H        -0.783443        -0.331135        -0.061392
 H        -0.001236         0.725103         1.419207
 H         2.114167        -0.450704         1.976480
 H         1.580539        -1.862128         0.971873
 H         4.224921        -0.613972         2.475575
 H         5.321248        -1.332102         1.183891
 H         5.693713         1.148886         0.814109
 H         4.215191         1.963401        -0.815007
 H         1.816001         1.747028        -0.901341
