19
Iteration:  4547
 C         0.067375         0.385068         0.327300
 C         1.522608         0.028205        -0.029594
 C         2.045332        -1.064883         0.987881
 O         3.433642        -1.606223         0.912000
 C         4.355216        -0.592856         1.378170
 C         4.734324         0.501102         0.501477
 C         3.966545         1.190151        -0.407032
 C         2.466817         1.050016        -0.639067
 O         1.756124        -0.068099        -1.416577
 H        -0.621565        -0.483417        -0.004688
 H        -0.219488         0.536177         1.392854
 H        -0.076727         1.320703        -0.329397
 H         1.898716        -0.576775         2.013456
 H         1.332401        -1.851176         0.860128
 H         4.160926        -0.313668         2.356307
 H         5.314474        -1.208244         1.608381
 H         5.764638         0.958436         0.665937
 H         4.532695         1.957587        -1.026314
 H         1.923786         1.958951        -0.861895
