19
Iteration:   904charge 0 multiplicity 1
 C         0.043318         0.565507         0.092947
 C         1.477383        -0.029314         0.096474
 C         1.996708        -0.950773         1.208003
 O         3.335519        -1.364405         1.089515
 C         4.503529        -0.456744         1.282716
 C         4.748240         0.510770         0.200221
 C         3.895296         1.165881        -0.517281
 C         2.418056         0.858519        -0.629868
 O         1.939530        -0.476037        -1.186866
 H        -0.093125         1.285800         0.969365
 H        -0.131950         1.252668        -0.818369
 H        -0.762211        -0.227762         0.073953
 H         1.761670        -0.585983         2.203800
 H         1.518349        -1.891410         1.029794
 H         4.375985         0.100408         2.301918
 H         5.284890        -1.260172         1.353092
 H         5.786164         0.760633         0.029166
 H         4.053363         1.877393        -1.241097
 H         1.764903         1.633390        -1.092204
