19
Iteration:  2234
 C         0.005575         0.398394         0.172182
 C         1.530817         0.021594         0.190364
 C         2.036238        -1.039572         1.161516
 O         3.408724        -1.314124         1.000516
 C         4.222918        -0.263704         1.422599
 C         4.801973         0.389524         0.129318
 C         3.909352         0.960357        -0.698467
 C         2.435533         0.939984        -0.516112
 O         1.992497        -0.238880        -1.195739
 H        -0.079370         0.707938         1.199585
 H        -0.217422         1.117945        -0.631526
 H        -0.635478        -0.407835        -0.001972
 H         1.809898        -0.821979         2.170180
 H         1.557718        -1.959676         0.866510
 H         3.732279         0.391678         2.096142
 H         5.118344        -0.790733         1.916753
 H         5.787241         0.214604        -0.140083
 H         4.256335         1.285620        -1.650672
 H         1.895460         1.710431        -0.989448
