19
Iteration:  1444charge 0 multiplicity 1
 C         0.129640         0.469493         0.058266
 C         1.578979         0.090778         0.148893
 C         1.981925        -0.858813         1.247835
 O         3.297296        -1.466816         1.133244
 C         4.398963        -0.527962         1.148014
 C         4.690862         0.469627         0.182996
 C         3.785361         1.258636        -0.529413
 C         2.352043         0.862929        -0.764280
 O         2.088084        -0.477286        -1.063391
 H         0.103118         1.431220         0.665046
 H        -0.098992         0.696606        -1.007741
 H        -0.453159        -0.205086         0.621940
 H         1.889419        -0.365339         2.187045
 H         1.180195        -1.665190         1.049921
 H         4.393732        -0.023632         2.181966
 H         5.123930        -1.259067         1.252317
 H         5.760340         0.821238         0.174746
 H         4.178461         2.211673        -0.951569
 H         1.692931         1.746329        -1.147749
