19
Iteration:    10
 C         0.060264         0.469278         0.180578
 C         1.521565         0.084867         0.071061
 C         2.031816        -0.844195         1.157563
 O         3.319711        -1.385183         1.063084
 C         4.481510        -0.594958         1.227716
 C         4.655925         0.536183         0.335261
 C         3.856679         1.178024        -0.541874
 C         2.400651         0.902506        -0.757122
 O         1.966099        -0.459273        -1.116511
 H        -0.037951         1.079273         1.153393
 H        -0.267452         0.912734        -0.650239
 H        -0.475671        -0.539851         0.281908
 H         1.938661        -0.198848         2.187966
 H         1.458372        -1.800277         1.139110
 H         4.648388        -0.291010         2.296329
 H         5.202279        -1.247772         0.986445
 H         5.702602         0.626476         0.058969
 H         4.335409         1.959341        -1.265223
 H         1.765796         1.700002        -1.361164
