19
Iteration:   161charge 0 multiplicity 1
 C        -0.024129         0.461417         0.009176
 C         1.480942         0.052267         0.054447
 C         2.118725        -0.640308         1.344180
 O         3.270112        -1.532600         1.262839
 C         4.535274        -0.730166         1.079126
 C         4.684792         0.543084         0.166642
 C         3.746749         1.277134        -0.452037
 C         2.376824         0.879144        -0.760063
 O         2.088677        -0.459037        -1.132505
 H        -0.477966         0.660927         1.075485
 H        -0.103407         1.345570        -0.501377
 H        -0.572478        -0.428807        -0.484285
 H         2.285820         0.180457         2.023908
 H         1.302016        -1.203190         1.858143
 H         4.887380        -0.514070         2.051894
 H         5.336560        -1.507171         0.612788
 H         5.731703         0.850312         0.210577
 H         4.033889         2.318821        -0.673294
 H         1.751816         1.512389        -1.502124
