19
Iteration:  3270
 C        -0.026059         0.422107         0.301336
 C         1.429860        -0.013577         0.060707
 C         2.095681        -0.983348         1.109124
 O         3.359049        -1.368803         0.647501
 C         4.443524        -0.641539         1.301032
 C         4.821792         0.602806         0.542131
 C         3.950597         1.100128        -0.390429
 C         2.469766         0.867594        -0.621286
 O         1.800890        -0.186905        -1.282497
 H        -0.299341         1.266597        -0.291518
 H        -0.585187        -0.376852        -0.114100
 H        -0.367732         0.487717         1.249493
 H         2.154708        -0.560176         2.092269
 H         1.460116        -1.893893         1.229733
 H         4.187188        -0.433532         2.431493
 H         5.334289        -1.343600         1.317742
 H         5.754755         1.101620         0.721709
 H         4.305323         1.965527        -1.003981
 H         2.218124         1.901986        -1.074259
