19
Iteration:  1334
 C         0.156957         0.543341         0.241413
 C         1.492866        -0.069162         0.136592
 C         1.970626        -1.016004         1.194218
 O         3.324014        -1.397713         1.081956
 C         4.346456        -0.359221         1.400606
 C         4.711522         0.568968         0.210428
 C         3.910567         1.095277        -0.648585
 C         2.443630         0.843342        -0.733249
 O         1.965354        -0.402445        -1.275413
 H        -0.034985         0.960547         1.274289
 H         0.152969         1.394871        -0.512316
 H        -0.648275        -0.081788        -0.004419
 H         1.724471        -0.867558         2.233085
 H         1.365723        -1.987045         1.029317
 H         4.089534         0.231271         2.236276
 H         5.313237        -0.902355         1.560355
 H         5.772431         0.697119         0.238151
 H         4.282385         1.840622        -1.265874
 H         1.907944         1.702676        -1.266735
