19
Iteration:  4128charge 0 multiplicity 1
 C         0.147334         0.404237         0.407063
 C         1.562337         0.089304        -0.035555
 C         2.093761        -1.080821         0.936495
 O         3.425301        -1.546738         0.964347
 C         4.379146        -0.627823         1.461283
 C         4.657753         0.565187         0.555446
 C         3.956449         1.158963        -0.432068
 C         2.463980         0.957149        -0.778293
 O         1.676967        -0.095219        -1.465510
 H        -0.365469         0.796422        -0.449709
 H        -0.444097        -0.531419         0.701575
 H         0.196527         1.152987         1.203179
 H         1.851642        -0.648688         1.895835
 H         1.373392        -1.999400         0.860297
 H         4.121660        -0.407520         2.504140
 H         5.312300        -1.267035         1.437775
 H         5.580084         1.055358         0.680115
 H         4.449096         1.936198        -1.032217
 H         2.101683         2.062649        -1.123607
