19
Iteration:   633
 C        -0.032710         0.269462         0.154500
 C         1.511686         0.075670         0.128184
 C         2.045098        -0.689513         1.327241
 O         3.200713        -1.364909         0.905555
 C         4.416289        -0.610830         1.316663
 C         4.792752         0.533875         0.267757
 C         3.946601         1.145378        -0.567654
 C         2.455808         0.906156        -0.781353
 O         1.994488        -0.421605        -1.170109
 H        -0.374852         0.449261         1.115901
 H        -0.362710         1.164197        -0.426810
 H        -0.453451        -0.613405        -0.226514
 H         2.272804        -0.032607         2.200409
 H         1.404971        -1.501717         1.731585
 H         4.364792        -0.130394         2.289261
 H         5.190768        -1.350425         1.389095
 H         5.830260         0.857536         0.445412
 H         4.355453         1.957183        -1.067494
 H         1.965960         1.690290        -1.323422
