19
Iteration:  3667
 C         0.050984         0.495375         0.343640
 C         1.485874        -0.008422         0.050496
 C         2.089181        -1.000064         1.001898
 O         3.411399        -1.381110         0.608845
 C         4.366316        -0.639764         1.342432
 C         4.769975         0.540584         0.507439
 C         3.924413         1.188786        -0.307042
 C         2.471615         0.914459        -0.669859
 O         1.794465        -0.280583        -1.227366
 H        -0.144955         1.140253        -0.424793
 H        -0.833398        -0.288754         0.125702
 H        -0.199511         0.824963         1.344736
 H         2.037831        -0.702110         2.121936
 H         1.604020        -2.039453         0.859927
 H         3.907430        -0.292503         2.331045
 H         5.317669        -1.202920         1.597047
 H         5.709780         0.935059         0.658501
 H         4.441508         2.001774        -0.832424
 H         1.912274         1.791494        -1.084067
