19
Iteration:   388charge 0 multiplicity 1
 C        -0.098788         0.400677         0.182565
 C         1.400220         0.062331         0.123792
 C         1.966818        -0.894824         1.156411
 O         3.385949        -1.209023         0.928987
 C         4.520211        -0.400448         1.424174
 C         4.968045         0.477499         0.215185
 C         4.034516         0.948026        -0.572500
 C         2.443911         0.851070        -0.645254
 O         1.783361        -0.388464        -1.172660
 H        -0.518613         0.798215         1.179585
 H        -0.463855         0.938859        -0.617840
 H        -0.674069        -0.575153         0.070154
 H         1.819448        -0.605769         2.198877
 H         1.420695        -1.832514         1.074677
 H         4.283013         0.193178         2.392329
 H         5.301515        -1.150533         1.661592
 H         6.008286         0.623845         0.029611
 H         4.318017         1.552253        -1.643722
 H         1.925979         1.761817        -1.014468
