19
Iteration:  2139charge 0 multiplicity 1
 C         0.151906         0.515162         0.330584
 C         1.489054         0.007426         0.072502
 C         2.046414        -0.910812         1.124642
 O         3.418111        -1.404475         0.889992
 C         4.375219        -0.400434         1.471782
 C         4.783314         0.614977         0.447263
 C         3.948254         1.057959        -0.560260
 C         2.472824         0.708936        -0.833020
 O         1.701766        -0.408608        -1.361584
 H         0.238008         1.198176         1.128926
 H        -0.255257         0.950925        -0.591740
 H        -0.776429        -0.185890         0.709427
 H         1.910079        -0.495903         2.161119
 H         1.461322        -1.853387         1.083779
 H         4.030823        -0.011746         2.397561
 H         5.245217        -0.982597         1.640351
 H         5.692456         1.088150         0.637633
 H         4.218856         1.927033        -1.140276
 H         2.058061         1.717588        -1.093386
