19
Iteration:  2694
 C         0.255936         0.569421         0.404203
 C         1.544525         0.004439         0.015440
 C         2.084643        -1.198270         0.924439
 O         3.443270        -1.563689         0.997622
 C         4.352043        -0.582272         1.395008
 C         4.524491         0.556165         0.445098
 C         3.830975         1.191606        -0.436343
 C         2.421180         0.984212        -0.747603
 O         1.846292        -0.158990        -1.410465
 H         0.397683         1.659254         0.550857
 H        -0.568023         0.277905        -0.211952
 H        -0.155040         0.190043         1.352034
 H         1.738826        -0.934398         1.996362
 H         1.554908        -2.100495         0.631704
 H         4.101997         0.002214         2.334740
 H         5.347679        -1.072109         1.513763
 H         5.604881         0.858529         0.500039
 H         4.367159         2.030447        -0.872259
 H         1.756661         1.815183        -1.159898
