19
Iteration:  1826charge 0 multiplicity 1
 C         0.023000         0.472836         0.102886
 C         1.494389        -0.020467         0.094800
 C         2.093083        -1.011126         1.241356
 O         3.352067        -1.429040         1.180230
 C         4.385503        -0.427177         1.389600
 C         4.729150         0.433165         0.130692
 C         3.838710         1.073290        -0.678205
 C         2.381822         0.972492        -0.625161
 O         2.026266        -0.275678        -1.236675
 H        -0.194243         0.989534         1.148011
 H        -0.117600         1.245676        -0.650658
 H        -0.706194        -0.298461         0.169209
 H         1.834094        -0.547608         2.237080
 H         1.479063        -1.834111         1.010340
 H         4.176390         0.268202         2.175344
 H         5.238736        -1.114566         1.765506
 H         5.720892         0.692962        -0.102317
 H         4.164940         1.661128        -1.561905
 H         1.953466         1.763467        -1.110073
