19
Iteration:  1289
 C         0.015444         0.377565         0.211002
 C         1.555408         0.065032         0.084773
 C         2.054304        -0.952893         1.137866
 O         3.373356        -1.398804         1.121549
 C         4.374216        -0.384152         1.460474
 C         4.757441         0.412676         0.183586
 C         3.913832         1.022196        -0.636067
 C         2.482469         0.931551        -0.721347
 O         1.874715        -0.268930        -1.251960
 H        -0.239099         0.657471         1.247216
 H        -0.277061         1.180635        -0.497295
 H        -0.518301        -0.511861        -0.087526
 H         1.704369        -0.495703         2.085687
 H         1.335988        -1.852212         1.111167
 H         3.872321         0.305204         2.108188
 H         5.189024        -0.871359         2.005324
 H         5.793500         0.545181         0.037351
 H         4.381131         1.708205        -1.373804
 H         1.903307         1.824291        -1.148100
