19
Iteration:  3089
 C         0.255107         0.729357         0.504133
 C         1.551553        -0.072318        -0.022118
 C         2.032147        -1.249548         0.853296
 O         3.439444        -1.625643         0.858544
 C         4.375781        -0.538445         1.375861
 C         4.595041         0.622749         0.543075
 C         3.764166         1.202652        -0.407431
 C         2.366896         0.956100        -0.758639
 O         1.902494        -0.234844        -1.383353
 H         0.062303         1.544892        -0.057044
 H        -0.598162         0.105640         0.618998
 H         0.465350         1.095402         1.518752
 H         1.747448        -0.987383         1.904950
 H         1.392423        -2.185714         0.632560
 H         3.954791        -0.348044         2.435671
 H         5.418702        -0.940163         1.574272
 H         5.563124         1.164347         0.616536
 H         4.283103         2.053248        -0.829155
 H         1.897366         1.919397        -1.050723
