19
Iteration:  1113charge 0 multiplicity 1
 C        -0.087766         0.291699         0.042760
 C         1.435657         0.052715        -0.023702
 C         2.166936        -0.562586         1.261716
 O         3.354559        -1.347297         1.134857
 C         4.582989        -0.719652         1.283167
 C         4.770045         0.538999         0.461098
 C         3.904172         0.972178        -0.466541
 C         2.339016         0.882217        -0.731229
 O         1.818327        -0.321211        -1.329924
 H        -0.356831         0.920318         0.870031
 H        -0.502238         0.725717        -0.782458
 H        -0.585072        -0.683204         0.112416
 H         2.467557         0.330829         1.815312
 H         1.528251        -1.277226         1.776342
 H         4.914912        -0.342938         2.326315
 H         5.339497        -1.378567         0.945779
 H         5.840077         0.841883         0.512092
 H         4.417692         1.899300        -1.026983
 H         1.776032         1.661525        -1.309138
