19
Iteration:  1466charge 0 multiplicity 1
 C         0.028539         0.374485         0.136790
 C         1.556597         0.055299         0.087740
 C         1.970615        -0.746588         1.399996
 O         3.250817        -1.464827         1.043020
 C         4.363288        -0.615151         1.174767
 C         4.664469         0.506502         0.212115
 C         3.873309         1.293955        -0.605948
 C         2.429471         0.940881        -0.731994
 O         2.143710        -0.476548        -1.116103
 H        -0.103063         1.122644         0.953555
 H        -0.130825         0.739334        -0.886565
 H        -0.422307        -0.548006         0.369742
 H         2.113220        -0.102522         2.258727
 H         1.117303        -1.507653         1.511648
 H         4.400386        -0.258859         2.258647
 H         5.107478        -1.313437         1.187715
 H         5.748611         0.804442         0.182541
 H         4.223231         2.142402        -1.267043
 H         1.945921         1.734520        -1.432826
