19
Iteration:   910
 C         0.029421         0.577299         0.093254
 C         1.471799        -0.025860         0.124658
 C         1.987763        -0.967492         1.172085
 O         3.316180        -1.396277         1.083878
 C         4.520484        -0.486669         1.282635
 C         4.749703         0.534292         0.226496
 C         3.876857         1.205506        -0.568948
 C         2.418447         0.851547        -0.652680
 O         1.981865        -0.475508        -1.125276
 H        -0.046404         1.267765         0.888320
 H        -0.085882         1.193807        -0.777829
 H        -0.815146        -0.065520         0.110080
 H         1.617002        -0.547425         2.164568
 H         1.438580        -1.978017         1.138402
 H         4.458597         0.090564         2.160913
 H         5.299187        -1.197514         1.397059
 H         5.793787         0.801380         0.031225
 H         4.087656         2.055487        -1.314628
 H         1.779975         1.526707        -1.212961
