19
Iteration:  4915charge 0 multiplicity 1
 C         0.181993         0.483634         0.497167
 C         1.489650         0.045921        -0.083609
 C         2.108389        -0.937953         0.802790
 O         3.371810        -1.578512         0.763930
 C         4.397598        -0.716459         1.348340
 C         4.586992         0.622914         0.766355
 C         3.831547         1.164707        -0.272784
 C         2.434501         0.993477        -0.754774
 O         1.881999        -0.216605        -1.433396
 H         0.448551         1.185805         1.245558
 H        -0.433008         0.847564        -0.241249
 H        -0.285465        -0.405601         0.998594
 H         1.923257        -0.735386         1.951487
 H         1.551532        -1.883973         0.516002
 H         4.129236        -0.710398         2.422721
 H         5.406052        -1.105486         1.116896
 H         5.528787         1.087499         0.956055
 H         4.264535         1.986036        -0.825656
 H         1.979667         2.050074        -1.045008
