19
Iteration:  3202charge 0 multiplicity 1
 C         0.132832         0.268859         0.206935
 C         1.600605         0.032943         0.044917
 C         2.042947        -1.157544         1.029701
 O         3.368255        -1.641055         1.176039
 C         4.317400        -0.587264         1.287836
 C         4.640051         0.399750         0.079558
 C         3.858214         1.316213        -0.479555
 C         2.417657         1.122406        -0.404632
 O         1.962585         0.068195        -1.329443
 H        -0.126151         1.015929        -0.575095
 H        -0.426248        -0.536784         0.094942
 H        -0.126815         0.737514         1.028664
 H         1.773730        -0.709651         1.905603
 H         1.381519        -2.041098         1.065832
 H         3.987004         0.090216         2.215280
 H         5.275557        -1.168783         1.671397
 H         5.695276         0.401306        -0.095166
 H         4.286062         2.080886        -1.233688
 H         1.820292         2.027268        -0.754531
