19
Iteration:  3621charge 0 multiplicity 1
 C         0.046384         0.240110         0.275810
 C         1.546169         0.057215         0.023581
 C         2.053853        -1.052214         1.010461
 O         3.336621        -1.560742         1.031299
 C         4.387812        -0.692523         1.297496
 C         4.651301         0.479590         0.317796
 C         3.884808         1.206342        -0.483126
 C         2.395064         1.170342        -0.528911
 O         2.002884         0.006449        -1.344658
 H        -0.489422         0.612876        -0.605765
 H        -0.726702        -0.508647         0.706852
 H        -0.034990         0.926017         1.143346
 H         2.028379        -0.557703         2.081640
 H         1.379465        -2.006416         1.014287
 H         4.463379        -0.229618         2.379966
 H         5.266782        -1.322122         1.261229
 H         5.763628         0.521061         0.210931
 H         4.351364         1.924870        -1.250246
 H         1.928848         2.080931        -0.847670
