19
Iteration:  1869
 C         0.088286         0.330030         0.208821
 C         1.570068         0.074450         0.131323
 C         1.959562        -0.833012         1.269721
 O         3.289718        -1.381196         0.949081
 C         4.342481        -0.486737         1.294952
 C         4.801708         0.490719         0.223538
 C         3.890878         1.188383        -0.542431
 C         2.464912         0.888657        -0.746338
 O         1.926075        -0.454998        -1.199510
 H        -0.105315         1.424753         0.653076
 H        -0.218480         0.560486        -0.806137
 H        -0.522737        -0.367309         0.690135
 H         2.029870        -0.216731         2.189167
 H         1.264308        -1.609401         1.368619
 H         4.198475        -0.111297         2.345888
 H         5.261666        -1.127998         1.573500
 H         5.799661         0.804946         0.397103
 H         4.333107         2.000659        -1.159922
 H         2.036654         1.654744        -1.279695
