19
Iteration:  4926
 C         0.205835         0.472324         0.486183
 C         1.602418         0.079765        -0.021175
 C         2.040848        -1.062000         0.908157
 O         3.400682        -1.498023         0.759303
 C         4.424911        -0.743442         1.345666
 C         4.532077         0.608119         0.694101
 C         3.803502         1.151435        -0.282195
 C         2.390313         0.989603        -0.755087
 O         1.922383        -0.161313        -1.489379
 H         0.153343         1.142558         1.312090
 H        -0.309975         0.961555        -0.274268
 H        -0.430950        -0.400477         0.727199
 H         1.764734        -0.626369         1.960850
 H         1.321507        -1.918893         0.731265
 H         4.334890        -0.616301         2.469539
 H         5.253312        -1.450379         1.285101
 H         5.492350         1.034059         0.846076
 H         4.334577         2.007260        -0.660645
 H         1.866654         1.939606        -1.199658
