19
Iteration:  1940
 C         0.115009         0.520382         0.209253
 C         1.536505         0.007650         0.027682
 C         2.075873        -0.680512         1.279195
 O         3.297386        -1.474492         1.063395
 C         4.485315        -0.615181         1.189454
 C         4.608934         0.577617         0.368730
 C         3.790708         1.226874        -0.445114
 C         2.445920         0.792551        -0.862983
 O         1.939882        -0.539384        -1.267545
 H        -0.046634         1.207732         0.959473
 H        -0.067639         1.069906        -0.732350
 H        -0.645906        -0.389067         0.296872
 H         2.280971        -0.069438         2.154885
 H         1.349346        -1.528883         1.588161
 H         4.833022        -0.383894         2.202930
 H         5.337416        -1.214467         0.898942
 H         5.433524         1.200004         0.893057
 H         4.121152         2.267132        -0.668498
 H         1.851652         1.566400        -1.482063
