19
Iteration:   924charge 0 multiplicity 1
 C         0.059211         0.573134         0.154237
 C         1.478121         0.023042         0.132736
 C         1.913715        -0.965856         1.246407
 O         3.344808        -1.461423         1.074716
 C         4.400085        -0.551714         1.236179
 C         4.710317         0.644677         0.188613
 C         3.874532         1.197772        -0.586189
 C         2.413794         0.877109        -0.793886
 O         2.096677        -0.486103        -1.056822
 H        -0.002657         1.361138         0.874641
 H        -0.102024         1.042818        -0.889905
 H        -0.668049        -0.214346         0.301305
 H         1.931292        -0.557246         2.268365
 H         1.266060        -1.859336         1.068539
 H         4.261193        -0.176993         2.246562
 H         5.238202        -1.200440         1.220867
 H         5.691863         0.993836         0.337038
 H         4.188892         2.028058        -1.165999
 H         1.884896         1.626710        -1.432958
