19
Iteration:  2434charge 0 multiplicity 1
 C         0.094491         0.242732         0.131345
 C         1.580970         0.060008         0.060961
 C         2.074503        -0.709159         1.347898
 O         3.260637        -1.444581         1.172113
 C         4.470279        -0.755092         1.162539
 C         4.569471         0.446974         0.291580
 C         3.782148         1.232804        -0.458107
 C         2.395633         1.086011        -0.774174
 O         2.038665        -0.269183        -1.329255
 H        -0.314058         0.992291        -0.367665
 H        -0.303375        -0.710699        -0.163950
 H         0.010501         0.384488         1.276429
 H         2.079204         0.057855         2.173868
 H         1.263731        -1.426725         1.647190
 H         4.890444        -0.639133         2.246009
 H         5.158871        -1.582783         0.636569
 H         5.711424         0.714008         0.451427
 H         4.153010         2.003648        -1.153532
 H         1.894068         1.851024        -1.331396
