19
Iteration:  3610charge 0 multiplicity 1
 C         0.094668         0.302250         0.223672
 C         1.561489         0.052114        -0.010617
 C         2.058769        -1.016800         1.083947
 O         3.383967        -1.650401         1.097344
 C         4.426607        -0.675913         1.304513
 C         4.656397         0.385838         0.231513
 C         3.829057         1.256885        -0.433667
 C         2.349935         1.204649        -0.514463
 O         1.952761         0.010694        -1.358889
 H        -0.369178         0.589072        -0.723749
 H        -0.268607        -0.798432         0.473177
 H        -0.094937         1.081228         0.974938
 H         1.712851        -0.603768         2.136094
 H         1.371968        -1.919530         0.848823
 H         4.257375        -0.220595         2.337705
 H         5.347148        -1.243345         1.261691
 H         5.739723         0.578128         0.019128
 H         4.382116         2.068125        -1.009370
 H         1.758945         2.072635        -0.710211
