19
Iteration:  2117charge 0 multiplicity 1
 C         0.187448         0.627423         0.246606
 C         1.497281        -0.037959         0.120776
 C         2.024703        -1.008119         1.154394
 O         3.363819        -1.327724         0.805720
 C         4.350681        -0.448885         1.319393
 C         4.709257         0.642671         0.446942
 C         3.894369         1.058366        -0.573549
 C         2.469981         0.832399        -0.668782
 O         1.867686        -0.526249        -1.205474
 H         0.015446         1.189943         1.088918
 H        -0.155226         1.034476        -0.701709
 H        -0.796834        -0.111550         0.360714
 H         1.968611        -0.423616         2.099838
 H         1.511176        -1.974762         1.319001
 H         3.964142         0.001424         2.187371
 H         5.169020        -1.057349         1.592410
 H         5.662313         1.037438         0.466246
 H         4.283162         1.721766        -1.327634
 H         2.017439         1.717558        -1.200174
