19
Iteration:  3133
 C         0.148503         0.405107         0.446242
 C         1.555028         0.095419         0.076703
 C         2.027881        -1.128999         0.931549
 O         3.421504        -1.419661         0.682041
 C         4.247786        -0.539214         1.409142
 C         4.733808         0.598796         0.538782
 C         3.974042         1.057180        -0.483524
 C         2.491113         0.923497        -0.687238
 O         1.758604        -0.157214        -1.312207
 H        -0.228304         1.137102        -0.148567
 H        -0.472840        -0.499214         0.419485
 H         0.113787         0.831560         1.497038
 H         1.849216        -1.020156         1.922807
 H         1.471656        -2.100868         0.720705
 H         3.813842         0.000047         2.400152
 H         5.019294        -1.256319         1.884900
 H         5.767855         1.022684         0.797935
 H         4.440645         1.790570        -1.069669
 H         2.150352         1.859443        -1.097305
