19
Iteration:  4306
 C         0.095210         0.530635         0.305022
 C         1.519253         0.067930         0.058065
 C         2.046391        -0.994086         1.050862
 O         3.341158        -1.488134         0.613051
 C         4.395816        -0.774507         1.177621
 C         4.576961         0.585347         0.674861
 C         3.857648         1.280681        -0.264043
 C         2.473307         0.958900        -0.683828
 O         2.001257        -0.319045        -1.253551
 H        -0.472401        -0.060715         1.084991
 H         0.248761         1.546545         0.541255
 H        -0.660344         0.389329        -0.500686
 H         2.165668        -0.562205         2.053149
 H         1.352822        -1.952386         0.894903
 H         4.482591        -0.819740         2.276140
 H         5.345820        -1.264260         0.913482
 H         5.419929         1.174160         0.965608
 H         4.123223         2.262932        -0.583077
 H         1.888068         1.809900        -1.189788
