19
Iteration:  3164charge 0 multiplicity 1
 C        -0.017762         0.323013         0.312562
 C         1.474374         0.003796         0.077557
 C         2.016354        -1.126037         0.915626
 O         3.427999        -1.420099         0.868870
 C         4.377265        -0.525243         1.449408
 C         4.795556         0.421641         0.337241
 C         3.939328         1.064897        -0.482874
 C         2.450472         1.088351        -0.495779
 O         1.876426        -0.015756        -1.331182
 H        -0.389314         0.954595        -0.510362
 H        -0.575553        -0.738347         0.408791
 H        -0.070288         0.933039         1.381558
 H         1.831343        -0.794896         2.021202
 H         1.473867        -2.068245         0.710073
 H         3.965462         0.011300         2.299655
 H         5.205692        -1.092074         1.774781
 H         5.867794         0.580570         0.097053
 H         4.275828         1.637004        -1.301646
 H         2.066278         2.026312        -0.812941
