19
Iteration:  4016charge 0 multiplicity 1
 C         0.031682         0.244857         0.261536
 C         1.488114        -0.003606        -0.003054
 C         2.082598        -0.972052         1.020320
 O         3.369313        -1.522394         0.994300
 C         4.447910        -0.623235         1.412962
 C         4.713329         0.380739         0.319863
 C         3.865395         1.071974        -0.435898
 C         2.397130         1.083933        -0.536029
 O         1.927733         0.126911        -1.413927
 H        -0.424960         0.954817        -0.426987
 H        -0.548384        -0.612924         0.060024
 H        -0.217799         0.456587         1.354383
 H         1.983950        -0.399963         1.953030
 H         1.487562        -1.885143         1.093364
 H         4.175300        -0.164035         2.321559
 H         5.381271        -1.280139         1.553242
 H         5.846377         0.701812         0.201489
 H         4.324020         1.690141        -1.226264
 H         1.873262         2.155262        -0.610962
