19
Iteration:   715
 C         0.175809         0.395595         0.296776
 C         1.565503        -0.045723        -0.058894
 C         2.057405        -0.721065         1.182699
 O         3.345492        -1.431029         1.183344
 C         4.522824        -0.631634         1.403745
 C         4.668956         0.557272         0.460709
 C         3.819170         1.062115        -0.548971
 C         2.375192         0.892928        -0.848585
 O         1.819305        -0.301816        -1.492537
 H        -0.047118         1.307772         0.914306
 H        -0.471874         0.400817        -0.626584
 H        -0.363282        -0.359970         0.951551
 H         2.124476         0.092570         2.017186
 H         1.274910        -1.513224         1.499845
 H         4.474570        -0.247577         2.402543
 H         5.393441        -1.256999         1.312026
 H         5.670119         1.012740         0.418231
 H         4.167187         1.812973        -1.268003
 H         1.866296         1.827303        -1.287297
