19
Iteration:  2137
 C         0.148446         0.518115         0.318409
 C         1.496933         0.003036         0.060863
 C         2.051331        -0.910076         1.133958
 O         3.409009        -1.403072         0.874941
 C         4.356809        -0.406170         1.460764
 C         4.797794         0.630439         0.440202
 C         3.940490         1.056888        -0.560671
 C         2.471652         0.699321        -0.813771
 O         1.702526        -0.408087        -1.343369
 H         0.288419         1.216483         1.102376
 H        -0.198541         0.997891        -0.622602
 H        -0.758060        -0.211879         0.703781
 H         1.934327        -0.505451         2.211276
 H         1.460544        -1.841015         1.087240
 H         4.002733         0.008796         2.444307
 H         5.290208        -1.015861         1.664603
 H         5.721415         1.115199         0.657441
 H         4.215079         1.945986        -1.130623
 H         2.041521         1.631428        -1.070912
