19
Iteration:  1694charge 0 multiplicity 1
 C         0.154740         0.572744         0.293958
 C         1.585606        -0.049196         0.036847
 C         2.017857        -1.012510         1.121923
 O         3.360246        -1.444378         1.025811
 C         4.305949        -0.397683         1.390466
 C         4.663985         0.563262         0.249511
 C         3.828001         1.060599        -0.634581
 C         2.445250         0.904840        -0.700409
 O         1.973947        -0.383583        -1.200064
 H         0.152874         1.585539         0.878749
 H        -0.342681         0.652724        -0.678479
 H        -0.492022        -0.121654         0.811330
 H         1.639895        -0.720975         2.144330
 H         1.439071        -1.881020         0.912166
 H         3.962842         0.110148         2.335079
 H         5.269838        -1.067744         1.526237
 H         5.693305         0.881982         0.362024
 H         4.307452         1.808579        -1.395721
 H         1.955554         1.758939        -1.157578
