19
Iteration:  4798
 C         0.093132         0.138364         0.177598
 C         1.531496         0.095961        -0.009910
 C         2.011942        -1.010798         1.061786
 O         3.314303        -1.626936         0.965384
 C         4.396339        -0.751248         1.308648
 C         4.674886         0.441901         0.339403
 C         3.892133         1.267975        -0.366036
 C         2.427352         1.214354        -0.430726
 O         2.001829         0.121996        -1.374618
 H        -0.289124         0.146015         1.287215
 H        -0.314467         1.061633        -0.252687
 H        -0.464228        -0.677162        -0.336960
 H         1.976624        -0.412654         2.050334
 H         1.307698        -1.910227         1.071361
 H         4.134455        -0.344791         2.322812
 H         5.208268        -1.483122         1.312506
 H         5.693978         0.463664         0.032021
 H         4.336534         1.830425        -1.177588
 H         1.974532         2.131255        -0.690422
