19
Iteration:  4213charge 0 multiplicity 1
 C         0.028139         0.337889         0.085445
 C         1.512787        -0.005315         0.226369
 C         1.958241        -1.112587         1.154687
 O         3.306261        -1.550086         0.841804
 C         4.302530        -0.621606         1.206629
 C         4.702541         0.454529         0.213687
 C         3.948386         1.306245        -0.462690
 C         2.461358         1.126909        -0.487470
 O         2.089188        -0.088895        -1.136130
 H        -0.398978        -0.302694        -0.654350
 H        -0.473636         0.200092         1.091958
 H        -0.217852         1.339848        -0.354877
 H         1.830437        -0.905916         2.276292
 H         1.440135        -1.981609         0.936540
 H         4.081349        -0.106321         2.137204
 H         5.271207        -1.050284         1.560233
 H         5.818258         0.565582         0.095533
 H         4.409911         2.174243        -0.939968
 H         1.894465         1.932618        -0.636753
