19
Iteration:  3647charge 0 multiplicity 1
 C         0.101826         0.335233         0.314029
 C         1.498582         0.077234         0.068408
 C         1.992953        -1.011863         1.035607
 O         3.328358        -1.437102         0.766395
 C         4.378594        -0.614448         1.308117
 C         4.806099         0.534305         0.431706
 C         3.943710         1.159031        -0.386633
 C         2.454684         0.979643        -0.563934
 O         1.862918        -0.169353        -1.352073
 H        -0.488589         0.881218        -0.449072
 H        -0.476134        -0.693938         0.516227
 H        -0.157529         0.826725         1.266166
 H         1.989832        -0.708714         2.140243
 H         1.349013        -1.933172         0.928020
 H         4.201352        -0.230287         2.270393
 H         5.298326        -1.362457         1.515792
 H         5.813582         0.850695         0.508972
 H         4.243952         2.036709        -0.911424
 H         1.994853         2.003378        -0.873805
