19
Iteration:  3940
 C         0.044407         0.395751         0.149535
 C         1.543605         0.003931         0.115122
 C         1.968307        -0.984259         1.107835
 O         3.308029        -1.490234         0.772155
 C         4.448090        -0.689627         1.208809
 C         4.709394         0.519106         0.376972
 C         3.874467         1.300101        -0.329180
 C         2.399638         1.013256        -0.577934
 O         2.020500        -0.241193        -1.157403
 H        -0.216729         1.056375        -0.642135
 H        -0.677886        -0.341532         0.166844
 H        -0.126069         0.996121         1.060817
 H         1.958496        -0.628754         2.153173
 H         1.370289        -1.933210         1.179914
 H         4.258201        -0.325455         2.311425
 H         5.380794        -1.320177         1.099192
 H         5.772471         0.873037         0.211023
 H         4.250824         2.174158        -0.881714
 H         1.866242         1.922142        -1.067905
