19
Iteration:  1154charge 0 multiplicity 1
 C         0.141993         0.412114         0.248573
 C         1.549002         0.012587         0.008813
 C         2.082681        -0.670297         1.201554
 O         3.245970        -1.386278         0.976704
 C         4.388782        -0.597539         1.260539
 C         4.648828         0.575118         0.401411
 C         3.893500         1.127867        -0.491562
 C         2.424892         0.877960        -0.833469
 O         1.956008        -0.518225        -1.209505
 H         0.073724         1.098748         1.056066
 H        -0.368534         0.807705        -0.636640
 H        -0.438059        -0.496185         0.541679
 H         2.168882        -0.068734         2.143728
 H         1.361915        -1.589125         1.298656
 H         4.232364        -0.266326         2.313729
 H         5.264828        -1.240665         1.375364
 H         5.647905         0.959217         0.588203
 H         4.265951         2.110269        -1.077125
 H         1.947119         1.765579        -1.390688
