19
Iteration:  3039
 C         0.003406         0.278514         0.342054
 C         1.519883         0.039116         0.037934
 C         2.043167        -1.029630         1.051090
 O         3.328731        -1.463529         0.784838
 C         4.338372        -0.670756         1.335234
 C         4.753169         0.580070         0.429761
 C         3.999393         1.125971        -0.480964
 C         2.447082         1.018698        -0.592103
 O         1.901918        -0.069459        -1.320723
 H        -0.527556         0.751202        -0.623251
 H        -0.509235        -0.633796         0.838435
 H        -0.022962         1.118092         1.113659
 H         2.033871        -0.807255         2.091756
 H         1.348271        -1.827151         1.007296
 H         4.028341        -0.298707         2.468534
 H         5.274985        -1.218847         1.556430
 H         5.860576         0.841561         0.578540
 H         4.369632         1.888743        -1.151444
 H         2.145432         2.086150        -0.754337
