19
Iteration:  1525charge 0 multiplicity 1
 C        -0.062351         0.247392         0.157765
 C         1.431737         0.087173        -0.017432
 C         2.219445        -0.512985         1.315544
 O         3.336650        -1.362416         1.137517
 C         4.554720        -0.755365         1.258145
 C         4.781794         0.529079         0.434158
 C         3.796330         1.106019        -0.395634
 C         2.416554         0.834934        -0.893772
 O         1.836890        -0.354944        -1.360608
 H        -0.574073         0.383101         1.074449
 H        -0.448443         1.113138        -0.352437
 H        -0.680788        -0.554086        -0.399211
 H         2.499699         0.345933         1.919004
 H         1.497643        -1.045752         1.912202
 H         4.780025        -0.452355         2.323575
 H         5.287027        -1.596995         0.885651
 H         5.793731         0.914661         0.487844
 H         4.272173         1.862078        -1.000185
 H         2.078620         1.542011        -1.541768
