19
Iteration:   167charge 0 multiplicity 1
 C         0.030895         0.442997         0.008554
 C         1.527881         0.066456         0.049163
 C         2.115216        -0.669187         1.348795
 O         3.286745        -1.568107         1.307126
 C         4.505287        -0.722492         1.045272
 C         4.630860         0.563630         0.145157
 C         3.748964         1.304147        -0.400388
 C         2.397201         0.883130        -0.772075
 O         2.032057        -0.476141        -1.134895
 H        -0.433543         0.669337         0.899598
 H        -0.103615         1.435000        -0.633513
 H        -0.588208        -0.250553        -0.473200
 H         2.473516         0.220365         1.975673
 H         1.331509        -1.308681         1.762572
 H         4.864681        -0.399058         2.111150
 H         5.145019        -1.400416         0.680271
 H         5.718692         0.854930         0.156648
 H         4.011243         2.288375        -0.910887
 H         1.948346         1.629917        -1.359157
