19
Iteration:  3406charge 0 multiplicity 1
 C        -0.090829         0.178806         0.082905
 C         1.478959         0.048984         0.098078
 C         2.040019        -0.873491         1.227601
 O         3.310244        -1.352675         0.738955
 C         4.487146        -0.773952         1.235618
 C         4.832269         0.443332         0.310358
 C         3.925327         1.200140        -0.313721
 C         2.444353         1.075160        -0.426417
 O         1.907897        -0.102153        -1.239611
 H        -0.233178         0.147233        -1.035099
 H        -0.655991        -0.657691         0.533320
 H        -0.428041         1.144537         0.654634
 H         2.304029        -0.220137         2.102513
 H         1.399194        -1.694011         1.476218
 H         4.442325        -0.563625         2.263686
 H         5.207601        -1.512215         1.179101
 H         5.923252         0.543897         0.009760
 H         4.227180         1.922877        -1.115376
 H         1.861312         2.060875        -0.591659
