19
Iteration:  1970charge 0 multiplicity 1
 C         0.065008         0.401945         0.111263
 C         1.497537         0.040712         0.078517
 C         2.016545        -0.711823         1.326015
 O         3.217102        -1.426550         0.958032
 C         4.436924        -0.614933         1.179738
 C         4.658429         0.585457         0.271896
 C         3.824596         1.218817        -0.547365
 C         2.390661         0.896863        -0.733389
 O         2.173653        -0.505279        -1.033755
 H        -0.223123         0.852359         1.132964
 H        -0.085270         1.242831        -0.609618
 H        -0.715454        -0.422958         0.033839
 H         2.162626        -0.190118         2.291509
 H         1.200452        -1.404420         1.369510
 H         4.625684        -0.625609         2.335743
 H         5.176761        -1.327491         0.659773
 H         5.754228         0.936656         0.396884
 H         4.173921         1.963526        -1.203417
 H         1.949337         1.545375        -1.386537
