19
Iteration:  4247charge 0 multiplicity 1
 C         0.035877         0.308509         0.242952
 C         1.526261         0.055386        -0.034182
 C         2.043520        -0.907280         0.974837
 O         3.361086        -1.557790         0.940120
 C         4.474047        -0.731426         1.261393
 C         4.712487         0.500495         0.451824
 C         3.852282         1.188078        -0.345624
 C         2.382097         1.070905        -0.536003
 O         1.935718        -0.100419        -1.368699
 H        -0.493031        -0.621051         0.438818
 H        -0.075238         0.832806         1.283430
 H        -0.393499         1.022317        -0.439535
 H         1.815622        -0.383404         1.986195
 H         1.371533        -1.715581         0.977454
 H         4.274014        -0.363638         2.241792
 H         5.274913        -1.527038         1.194055
 H         5.716117         0.887123         0.440660
 H         4.429090         2.101023        -0.663820
 H         1.960009         1.954873        -0.752080
