19
Iteration:  3141charge 0 multiplicity 1
 C         0.062870         0.382356         0.417283
 C         1.496399         0.090665         0.130064
 C         2.091003        -1.081817         0.924192
 O         3.425483        -1.411814         0.711298
 C         4.256818        -0.562406         1.430693
 C         4.776303         0.563683         0.508753
 C         4.006472         1.043908        -0.468635
 C         2.492350         0.952492        -0.639361
 O         1.772046        -0.132936        -1.339641
 H        -0.431244         1.103196        -0.307163
 H        -0.503301        -0.663820         0.418565
 H         0.014529         0.812055         1.535404
 H         1.927505        -0.975633         2.032034
 H         1.522796        -1.912065         0.521219
 H         3.620534        -0.203258         2.223033
 H         5.088785        -1.040719         1.855754
 H         5.793160         0.887268         0.566661
 H         4.366271         1.682656        -1.267208
 H         2.201661         1.838174        -1.129764
