19
Iteration:  3786charge 0 multiplicity 1
 C        -0.041854         0.198559         0.049828
 C         1.465759         0.066860         0.156086
 C         2.026113        -0.948594         1.195128
 O         3.270505        -1.432893         0.834678
 C         4.442103        -0.633452         1.217511
 C         4.892784         0.460010         0.238952
 C         3.939624         1.151627        -0.422088
 C         2.477412         1.058251        -0.460852
 O         1.885250        -0.056486        -1.160287
 H        -0.268448         0.640315        -0.978888
 H        -0.362892        -0.974063         0.062747
 H        -0.530987         0.664265         0.934249
 H         2.039574        -0.445269         2.173059
 H         1.322461        -1.854907         1.239186
 H         4.426519        -0.230521         2.272187
 H         5.212017        -1.383102         1.330775
 H         5.888149         0.640442         0.103869
 H         4.319015         2.019128        -1.015804
 H         1.983301         1.997085        -0.564715
