19
Iteration:  3894
 C         0.072291         0.475704         0.336372
 C         1.479839         0.049784        -0.002433
 C         2.126681        -0.841555         1.058680
 O         3.371350        -1.371574         0.720927
 C         4.534586        -0.794438         1.251701
 C         4.608335         0.633195         0.684066
 C         3.861848         1.137178        -0.285920
 C         2.420146         0.864444        -0.807138
 O         1.839004        -0.344715        -1.292188
 H        -0.218233         1.273256        -0.378061
 H        -0.603633        -0.190431         0.196131
 H        -0.079310         0.861257         1.331590
 H         2.166550        -0.414656         2.048649
 H         1.584511        -1.739274         1.226468
 H         4.592229        -0.858641         2.426638
 H         5.315509        -1.379618         0.670839
 H         5.474645         1.198421         0.894593
 H         3.974052         2.199982        -0.626733
 H         2.126064         1.686639        -1.441403
