19
Iteration:  2030charge 0 multiplicity 1
 C        -0.049792         0.174646         0.132404
 C         1.469262         0.052913        -0.030360
 C         2.211475        -0.616806         1.263604
 O         3.320978        -1.372363         1.190603
 C         4.519349        -0.698853         1.344061
 C         4.671983         0.411298         0.266161
 C         3.801688         1.021097        -0.545777
 C         2.375761         1.016052        -0.647773
 O         1.975197        -0.178379        -1.358152
 H        -0.118065         0.638331         1.092718
 H        -0.530515         0.805900        -0.595094
 H        -0.546725        -0.846053        -0.050345
 H         2.210455         0.130127         2.037741
 H         1.434288        -1.408033         1.590773
 H         4.723922        -0.327514         2.491582
 H         5.280982        -1.391888         1.142806
 H         5.654847         0.624939         0.102816
 H         4.151871         1.729058        -1.316704
 H         1.948319         2.008106        -1.157763
