19
Iteration:  2343
 C         0.032596         0.496973         0.174835
 C         1.478541         0.059116         0.130294
 C         2.062904        -0.875816         1.273954
 O         3.324268        -1.461450         0.941074
 C         4.409368        -0.579013         1.211490
 C         4.723494         0.629494         0.378183
 C         3.920984         1.238166        -0.555042
 C         2.438314         0.772932        -0.831994
 O         1.945065        -0.466142        -1.155648
 H        -0.083162         1.531808         0.693348
 H        -0.300283         0.819794        -0.819557
 H        -0.654561        -0.123660         0.632618
 H         2.149517        -0.449738         2.336037
 H         1.371780        -1.736081         1.350912
 H         4.350152        -0.309676         2.386225
 H         5.300072        -1.290263         1.197871
 H         5.596450         1.167110         0.548206
 H         4.257385         2.212545        -0.886427
 H         1.855987         1.576969        -1.347118
