19
Iteration:  4473charge 0 multiplicity 1
 C         0.178227         0.613240         0.329636
 C         1.581583         0.039324         0.185324
 C         2.023199        -1.272731         0.908617
 O         3.347530        -1.531932         0.682627
 C         4.281329        -0.574635         1.238278
 C         4.687286         0.570751         0.477516
 C         3.873270         1.318396        -0.260238
 C         2.474049         0.927554        -0.578787
 O         1.937861        -0.267205        -1.305503
 H        -0.400682         0.118654         1.051179
 H         0.207289         1.675318         0.577218
 H        -0.317567         0.449926        -0.605454
 H         1.875895        -1.039077         1.984801
 H         1.297862        -2.015982         0.391621
 H         3.815644        -0.293767         2.290281
 H         5.051368        -1.175340         1.560666
 H         5.638929         0.992804         0.866702
 H         4.211903         2.310341        -0.718658
 H         1.817679         1.766298        -1.005107
