19
Iteration:  1841
 C         0.031939         0.469081         0.137998
 C         1.526929         0.023780         0.146213
 C         1.902460        -0.966972         1.199986
 O         3.363177        -1.452973         1.094155
 C         4.400030        -0.406451         1.286602
 C         4.744923         0.474986         0.102450
 C         3.871796         1.118917        -0.623066
 C         2.394277         0.962831        -0.634700
 O         2.081687        -0.383635        -1.107655
 H        -0.104218         1.250784         0.788899
 H        -0.147241         0.894030        -0.879245
 H        -0.794410        -0.350901         0.185209
 H         1.744244        -0.535642         2.218231
 H         1.300776        -1.961638         1.189913
 H         4.119341         0.138581         2.223932
 H         5.303468        -0.890337         1.601045
 H         5.879516         0.583714         0.047687
 H         4.292511         1.764123        -1.352255
 H         1.772973         1.844517        -1.142107
