19
Iteration:  4833
 C        -0.026489         0.300900         0.176802
 C         1.477589         0.073741         0.122122
 C         1.997918        -1.147394         0.973975
 O         3.330103        -1.534217         0.822336
 C         4.372902        -0.678025         1.257191
 C         4.816146         0.429951         0.320109
 C         3.890558         1.259425        -0.273106
 C         2.442473         1.067400        -0.467178
 O         2.021235         0.019804        -1.272050
 H        -0.206674         1.135344         0.988408
 H        -0.265662         0.780327        -0.868255
 H        -0.588767        -0.629193         0.383793
 H         1.747976        -0.877082         2.134659
 H         1.355065        -1.998346         0.823985
 H         4.043180        -0.163234         2.222612
 H         5.355827        -1.057592         1.671719
 H         5.861684         0.711785         0.232130
 H         4.243737         2.129590        -0.879181
 H         2.128559         2.002322        -0.796091
