19
Iteration:  4409
 C         0.035282         0.036186         0.172047
 C         1.526616         0.073168         0.037960
 C         2.018233        -0.886112         1.007181
 O         3.259930        -1.515541         0.877885
 C         4.471036        -0.756333         1.321391
 C         4.812224         0.311156         0.381911
 C         3.954924         1.198748        -0.245507
 C         2.419475         1.176928        -0.481109
 O         1.847372         0.148687        -1.422177
 H        -0.310811        -0.607502         0.910810
 H        -0.278945         0.996575         0.648500
 H        -0.426717        -0.003405        -0.759266
 H         1.885267        -0.385106         1.985159
 H         1.310424        -1.728839         1.317671
 H         4.475897        -0.305635         2.283472
 H         5.286254        -1.394176         1.331903
 H         5.869681         0.678284         0.255022
 H         4.545216         2.006559        -0.796710
 H         2.014391         2.249246        -0.761953
