19
Iteration:  3651
 C         0.073625         0.326529         0.301909
 C         1.504048         0.071841         0.102237
 C         2.025265        -1.042264         1.020402
 O         3.345175        -1.402478         0.738000
 C         4.381872        -0.624682         1.306381
 C         4.807744         0.517496         0.457898
 C         3.948756         1.174645        -0.377470
 C         2.457876         0.982283        -0.574378
 O         1.825201        -0.208997        -1.341393
 H        -0.445310         1.102513        -0.410457
 H        -0.385834        -0.558047         0.434893
 H        -0.046200         0.940161         1.241460
 H         1.988621        -0.684061         2.015070
 H         1.313978        -1.818764         0.977487
 H         4.115415        -0.194811         2.324829
 H         5.113800        -1.355453         1.546496
 H         5.897907         0.907818         0.544901
 H         4.174440         2.125773        -0.875449
 H         2.102647         1.919693        -0.960149
