19
Iteration:   809charge 0 multiplicity 1
 C         0.059580         0.537538         0.166075
 C         1.486454        -0.026313         0.040579
 C         2.009507        -0.970910         1.213623
 O         3.397008        -1.462945         1.121725
 C         4.399906        -0.387962         1.312176
 C         4.765695         0.535354         0.234025
 C         3.876955         1.058175        -0.543021
 C         2.447747         0.907231        -0.661163
 O         1.891216        -0.371467        -1.258327
 H        -0.300071         0.822449         1.178374
 H        -0.037127         1.382264        -0.458133
 H        -0.625220        -0.251870        -0.156423
 H         1.799459        -0.464587         2.205212
 H         1.592258        -1.999151         1.214811
 H         4.056969         0.240923         2.135413
 H         5.312580        -0.963754         1.630731
 H         5.807999         0.734925        -0.038728
 H         4.261213         1.712211        -1.520166
 H         1.917982         1.763753        -1.105183
