19
Iteration:  1008
 C         0.001397         0.283355         0.038605
 C         1.454306         0.060546        -0.004136
 C         2.095908        -0.578136         1.300654
 O         3.295073        -1.319278         1.121437
 C         4.579141        -0.738473         1.179409
 C         4.766271         0.542034         0.404345
 C         3.910275         1.102028        -0.406644
 C         2.381808         0.894383        -0.808647
 O         1.844010        -0.435515        -1.243127
 H        -0.241242         0.811455         0.979798
 H        -0.318515         0.920922        -0.840109
 H        -0.656310        -0.585841         0.073354
 H         2.221940         0.162853         2.074932
 H         1.440903        -1.274883         1.859305
 H         4.873507        -0.513699         2.313174
 H         5.318320        -1.570911         0.981453
 H         5.729461         1.176585         0.348010
 H         4.181099         1.994906        -0.860962
 H         1.897139         1.633119        -1.380167
