19
Iteration:   901charge 0 multiplicity 1
 C         0.047644         0.558619         0.103948
 C         1.483177        -0.025683         0.075841
 C         1.996980        -0.936624         1.229785
 O         3.361204        -1.339765         1.093008
 C         4.473932        -0.457322         1.295377
 C         4.778497         0.494371         0.192205
 C         3.853739         1.140102        -0.501783
 C         2.410972         0.857237        -0.619821
 O         1.915893        -0.468116        -1.224191
 H        -0.123614         1.150349         0.947677
 H        -0.115782         1.201928        -0.826227
 H        -0.638700        -0.253942         0.088401
 H         1.860106        -0.576933         2.270950
 H         1.460241        -1.900121         0.982548
 H         4.360676         0.009569         2.269906
 H         5.246066        -1.142311         1.330738
 H         5.806422         0.727968         0.076309
 H         4.217095         1.850225        -1.252078
 H         1.900925         1.756364        -1.046296
