19
Iteration:  1548
 C         0.079490         0.373355         0.134430
 C         1.523727         0.019608         0.017617
 C         2.124437        -0.624222         1.289153
 O         3.237206        -1.371908         1.099184
 C         4.505324        -0.720970         1.174146
 C         4.627445         0.574995         0.369551
 C         3.831174         1.184098        -0.577140
 C         2.381871         0.874107        -0.764008
 O         2.023427        -0.474930        -1.187538
 H        -0.290343         0.448103         1.122700
 H        -0.357996         1.270343        -0.315081
 H        -0.543370        -0.502209        -0.244898
 H         2.324129         0.223514         1.959328
 H         1.308409        -1.098980         1.753875
 H         4.600087        -0.451393         2.257137
 H         5.159895        -1.630534         0.812769
 H         5.586210         1.006241         0.642662
 H         4.257554         2.047990        -0.926592
 H         1.850264         1.529359        -1.329243
