19
Iteration:  2583charge 0 multiplicity 1
 C         0.055575         0.437259         0.228068
 C         1.607767        -0.029410         0.097078
 C         1.973021        -0.963196         1.122266
 O         3.358839        -1.609104         1.030658
 C         4.427945        -0.567093         1.303444
 C         4.681325         0.574171         0.309183
 C         3.872736         1.270944        -0.537890
 C         2.419053         0.959881        -0.644671
 O         1.939506        -0.229181        -1.282877
 H        -0.527870        -0.142941         1.038737
 H         0.069033         1.467239         0.382622
 H        -0.398320         0.285006        -0.756781
 H         1.874557        -0.562912         2.121813
 H         1.320846        -1.842050         1.025979
 H         4.259862        -0.127560         2.252775
 H         5.180885        -1.278561         1.475450
 H         5.682284         0.827117         0.037324
 H         4.308234         2.096158        -1.163764
 H         1.956250         1.966279        -0.865542
