19
Iteration:  4100
 C         0.244882         0.568558         0.435140
 C         1.544885         0.049206         0.003757
 C         2.075795        -1.116792         0.935827
 O         3.421126        -1.525070         0.796746
 C         4.283508        -0.560506         1.400452
 C         4.610081         0.627421         0.548182
 C         3.817523         1.115016        -0.420626
 C         2.426811         0.883936        -0.682562
 O         1.879644        -0.252763        -1.426565
 H         0.117576         1.616449        -0.020435
 H        -0.578323        -0.111472         0.377747
 H         0.428027         0.883839         1.480531
 H         1.806836        -0.833097         2.008915
 H         1.379345        -1.919143         0.747217
 H         3.834662        -0.371820         2.506009
 H         5.187346        -1.116552         1.632372
 H         5.609728         1.139685         0.658481
 H         4.272557         2.020929        -0.909749
 H         2.033917         1.798274        -1.022240
