19
Iteration:  2930
 C         0.083477         0.387257         0.310230
 C         1.495429         0.080240         0.009877
 C         2.085562        -0.750161         1.144816
 O         3.276338        -1.535867         0.867444
 C         4.507101        -0.774080         1.082835
 C         4.676806         0.567836         0.556089
 C         3.777859         1.272460        -0.248672
 C         2.413773         0.929508        -0.813484
 O         2.004402        -0.309139        -1.307788
 H        -0.271896         1.526311         0.018182
 H        -0.580821        -0.466392        -0.187798
 H        -0.150175         0.205403         1.447644
 H         2.202102        -0.126672         2.157730
 H         1.285088        -1.520064         1.225514
 H         4.641112        -0.716091         2.096781
 H         5.272570        -1.419965         0.716569
 H         5.655612         1.041220         0.994557
 H         4.052074         2.240981        -0.548051
 H         1.868734         1.666253        -1.343107
