19
Iteration:  1981
 C         0.011195         0.354755         0.113995
 C         1.545582         0.057126         0.164967
 C         1.983836        -0.736285         1.336421
 O         3.209179        -1.366282         0.984082
 C         4.421962        -0.644915         1.092261
 C         4.690725         0.523401         0.276780
 C         3.892914         1.221414        -0.547353
 C         2.428132         0.911898        -0.732049
 O         2.114546        -0.469122        -1.085458
 H        -0.363972         0.754097         1.118569
 H        -0.300581         1.019998        -0.734781
 H        -0.433266        -0.629518        -0.258131
 H         1.984097         0.009066         2.170464
 H         1.329631        -1.532874         1.673679
 H         4.584382        -0.172345         2.182977
 H         5.307650        -1.400678         1.004993
 H         5.791199         0.871220         0.384144
 H         4.285335         2.065631        -1.060962
 H         1.890048         1.599792        -1.271748
