19
Iteration:  1545
 C         0.029094         0.360100         0.124883
 C         1.515283         0.016913         0.006708
 C         2.119208        -0.579448         1.293227
 O         3.257058        -1.401841         1.104797
 C         4.537755        -0.702564         1.170351
 C         4.639623         0.553019         0.390355
 C         3.835573         1.151752        -0.567379
 C         2.395518         0.866007        -0.768912
 O         1.997201        -0.462397        -1.212602
 H        -0.280348         0.392032         1.215073
 H        -0.295802         1.300423        -0.290726
 H        -0.582082        -0.558912        -0.237233
 H         2.361486         0.289929         1.923664
 H         1.243524        -1.086900         1.840736
 H         4.605958        -0.463589         2.281429
 H         5.160604        -1.466453         0.822567
 H         5.585133         1.036735         0.637537
 H         4.322324         2.158308        -0.899373
 H         1.892079         1.698076        -1.317608
