19
Iteration:  2094charge 0 multiplicity 1
 C         0.080683         0.589068         0.210380
 C         1.509299         0.031573         0.143614
 C         2.054088        -0.970315         1.153881
 O         3.333896        -1.384546         0.960313
 C         4.385478        -0.561869         1.341369
 C         4.713393         0.604634         0.311793
 C         3.821843         1.141340        -0.582562
 C         2.425962         0.844313        -0.759378
 O         2.031771        -0.429458        -1.137688
 H        -0.077527         1.011091         1.132606
 H        -0.341184         1.169681        -0.587022
 H        -0.781739        -0.272819         0.276001
 H         1.871177        -0.638241         2.203269
 H         1.405359        -1.850279         0.979023
 H         4.115104        -0.151063         2.262801
 H         5.176243        -1.246819         1.502760
 H         5.693433         0.931429         0.122872
 H         4.161745         1.848172        -1.350864
 H         1.990701         1.546619        -1.485193
