19
Iteration:  3391charge 0 multiplicity 1
 C        -0.090668         0.227938         0.079507
 C         1.403412         0.039971         0.120494
 C         2.080463        -0.859502         1.176191
 O         3.317989        -1.475444         0.809241
 C         4.534294        -0.732514         1.175232
 C         4.891581         0.431298         0.338545
 C         3.940596         1.195208        -0.317054
 C         2.365628         1.044077        -0.498681
 O         1.880777        -0.046955        -1.217891
 H        -0.386991         0.182184        -0.884680
 H        -0.525830        -0.613089         0.614673
 H        -0.480275         1.093709         0.450201
 H         2.000659        -0.276389         2.167603
 H         1.409837        -1.787448         1.432147
 H         4.441227        -0.335024         2.184484
 H         5.450168        -1.488829         1.183191
 H         5.956883         0.811015         0.263360
 H         4.352230         2.098716        -0.656408
 H         2.041265         1.993495        -1.067436
