19
Iteration:   305charge 0 multiplicity 1
 C         0.213723         0.553397         0.306488
 C         1.637750         0.062651         0.116842
 C         1.987368        -0.972076         1.191653
 O         3.298745        -1.398094         1.217778
 C         4.423791        -0.557522         1.243921
 C         4.636212         0.583307         0.168798
 C         3.779570         1.198922        -0.559610
 C         2.410870         0.808705        -0.839059
 O         1.933786        -0.460764        -1.309071
 H         0.237919         1.204943         1.192344
 H        -0.023030         1.157398        -0.597259
 H        -0.333769        -0.386422         0.483993
 H         1.672303        -0.611503         2.274247
 H         1.381428        -1.893313         0.860221
 H         4.389614         0.123845         2.194655
 H         5.351979        -1.291041         1.391156
 H         5.624014         0.973150         0.326501
 H         3.911079         2.134125        -0.808476
 H         1.940927         1.664799        -1.362711
