19
Iteration:   326charge 0 multiplicity 1
 C         0.167554         0.470517         0.405668
 C         1.591208        -0.017663        -0.019320
 C         2.049045        -0.888889         1.155502
 O         3.332193        -1.469102         1.209918
 C         4.363158        -0.476637         1.319494
 C         4.607206         0.492362         0.204207
 C         3.851361         1.197685        -0.589192
 C         2.362817         0.943921        -0.866173
 O         1.979850        -0.435889        -1.314663
 H         0.310692         1.006196         1.389385
 H        -0.135559         1.239868        -0.274220
 H        -0.574578        -0.371105         0.557151
 H         1.812261        -0.260216         2.107092
 H         1.309679        -1.773457         1.168945
 H         4.257232         0.037800         2.300504
 H         5.293752        -1.057251         1.425286
 H         5.643858         0.809679         0.276541
 H         4.322474         1.861810        -1.211869
 H         1.805593         1.791673        -1.346047
