19
Iteration:  4754
 C         0.071309         0.366143         0.209640
 C         1.533974        -0.011517        -0.013406
 C         1.978011        -0.994904         1.025168
 O         3.309478        -1.517057         0.804386
 C         4.494285        -0.721665         1.277635
 C         4.782197         0.505110         0.487226
 C         3.881974         1.292182        -0.199572
 C         2.468469         1.044563        -0.559302
 O         1.850745        -0.120036        -1.342190
 H        -0.521410        -0.318398         0.916210
 H        -0.213254         1.294515         0.616549
 H        -0.431300         0.279506        -0.789042
 H         1.872150        -0.347677         1.943964
 H         1.292490        -1.857508         0.928032
 H         4.276308        -0.501235         2.340923
 H         5.378513        -1.380964         1.161357
 H         5.832059         0.755032         0.491032
 H         4.385855         2.098595        -0.743769
 H         1.987742         1.887050        -0.953024
