19
Iteration:  2879charge 0 multiplicity 1
 C        -0.003902         0.372473         0.092331
 C         1.532945         0.062664         0.112830
 C         2.148746        -0.776370         1.250267
 O         3.261908        -1.389915         0.653058
 C         4.529538        -0.811052         1.099558
 C         4.721967         0.598629         0.548877
 C         3.813958         1.196424        -0.231718
 C         2.436198         0.953527        -0.607685
 O         1.898299        -0.354090        -1.223251
 H        -0.246412         1.041999        -0.657786
 H        -0.489892        -0.520808        -0.077798
 H        -0.342651         0.700476         1.013429
 H         2.437689        -0.149719         2.064187
 H         1.305694        -1.351774         1.689715
 H         4.690466        -0.914176         2.289057
 H         5.268587        -1.595893         0.739387
 H         5.687805         1.098853         0.752486
 H         4.035731         2.222636        -0.642209
 H         1.879033         1.687522        -1.185845
