19
Iteration:   524charge 0 multiplicity 1
 C        -0.000209         0.467140         0.130977
 C         1.465840         0.139984         0.181504
 C         2.100928        -0.878449         1.284332
 O         3.328052        -1.403940         0.833414
 C         4.343219        -0.503871         1.255171
 C         4.729195         0.512790         0.294759
 C         3.905931         1.111759        -0.547666
 C         2.433540         0.845682        -0.733455
 O         2.008832        -0.447552        -1.070056
 H        -0.232888         1.301937         0.701148
 H        -0.241307         0.518627        -1.002905
 H        -0.527820        -0.353327         0.516719
 H         2.226833        -0.292559         2.192943
 H         1.401869        -1.785039         1.336365
 H         4.118649         0.083485         2.273485
 H         5.075042        -1.156044         1.412742
 H         5.805764         0.875261         0.346595
 H         4.187320         1.886109        -1.037143
 H         2.003336         1.670281        -1.297336
