19
Iteration:  3394
 C        -0.073251         0.213910         0.087095
 C         1.411478         0.013294         0.132633
 C         2.053087        -0.857395         1.194413
 O         3.335053        -1.451080         0.786875
 C         4.524134        -0.756733         1.201875
 C         4.899808         0.445031         0.329252
 C         3.927008         1.195639        -0.318491
 C         2.384447         1.060607        -0.480564
 O         1.873650        -0.054737        -1.226335
 H        -0.407658         0.217642        -0.944058
 H        -0.548590        -0.669733         0.551779
 H        -0.595362         1.174679         0.374534
 H         1.999317        -0.220762         2.159942
 H         1.443320        -1.732645         1.476386
 H         4.405814        -0.406232         2.151001
 H         5.317560        -1.464941         1.165895
 H         6.044573         0.717665         0.173743
 H         4.367491         2.110056        -0.737167
 H         2.058248         2.072213        -1.053590
