19
Iteration:  2167
 C         0.149628         0.424029         0.401357
 C         1.513992         0.048961        -0.051004
 C         2.102499        -0.909045         1.043795
 O         3.413350        -1.454905         1.178919
 C         4.372450        -0.437350         1.511011
 C         4.637148         0.585408         0.360197
 C         3.859784         0.947786        -0.646711
 C         2.401237         0.945930        -0.855435
 O         1.857680        -0.310998        -1.382098
 H         0.400429         1.142197         1.247020
 H        -0.576435         0.882402        -0.296526
 H        -0.409212        -0.282313         0.837234
 H         1.690989        -0.647984         2.006776
 H         1.578532        -1.797228         0.694177
 H         4.206382        -0.080545         2.568424
 H         5.315511        -1.089735         1.480112
 H         5.733963         0.900033         0.319859
 H         4.223418         1.543702        -1.505343
 H         2.003921         1.883912        -1.219937
