19
Iteration:  4651
 C         0.038130         0.272320         0.267527
 C         1.550215         0.081678        -0.026442
 C         2.017902        -0.916603         1.022505
 O         3.339173        -1.507202         0.926882
 C         4.531067        -0.725765         1.305939
 C         4.686883         0.500510         0.509763
 C         3.837511         1.180924        -0.339279
 C         2.418224         1.030593        -0.590120
 O         1.935804        -0.077988        -1.405877
 H        -0.597023         0.080606        -0.588524
 H        -0.342111        -0.062788         1.267092
 H        -0.277970         1.303539         0.424341
 H         1.848668        -0.434973         2.014488
 H         1.169183        -1.749986         1.076148
 H         4.478768        -0.518611         2.363889
 H         5.263597        -1.420862         1.025942
 H         5.770964         0.785163         0.241458
 H         4.341586         1.695873        -1.124716
 H         1.934456         2.077413        -0.797924
