19
Iteration:   815charge 0 multiplicity 1
 C         0.067671         0.472020         0.229194
 C         1.483563        -0.025619         0.060519
 C         2.039668        -0.951909         1.173482
 O         3.379657        -1.411581         1.136570
 C         4.404994        -0.413787         1.346241
 C         4.760592         0.460644         0.272383
 C         3.888132         1.096513        -0.616235
 C         2.462436         0.939875        -0.693110
 O         1.873441        -0.367213        -1.303023
 H        -0.239903         0.742788         1.245603
 H        -0.257221         1.376545        -0.456916
 H        -0.622177        -0.298662        -0.198162
 H         1.770850        -0.472722         2.139389
 H         1.447651        -1.873951         1.232619
 H         4.120664         0.244307         2.223159
 H         5.311926        -0.934904         1.679493
 H         5.785754         0.737053         0.021838
 H         4.298090         1.665283        -1.298516
 H         1.998579         1.806762        -1.150061
