19
Iteration:  1850charge 0 multiplicity 1
 C         0.083845         0.470318         0.112105
 C         1.502025         0.004179         0.142252
 C         1.975947        -0.935437         1.243932
 O         3.326678        -1.404295         1.057246
 C         4.342721        -0.451083         1.243212
 C         4.747224         0.477403         0.181879
 C         3.896642         1.206513        -0.611682
 C         2.438403         0.905113        -0.639000
 O         2.025806        -0.422762        -1.104494
 H        -0.283975         1.241008         0.787637
 H        -0.223626         0.771461        -0.909207
 H        -0.439455        -0.459941         0.544600
 H         1.716680        -0.457840         2.222969
 H         1.331971        -1.805635         0.961515
 H         4.112808         0.196110         2.075001
 H         5.194074        -1.074285         1.612753
 H         5.816318         0.569881        -0.166635
 H         4.344502         1.847633        -1.305263
 H         1.900224         1.747324        -1.088186
