19
Iteration:   726charge 0 multiplicity 1
 C         0.092347         0.315184         0.365914
 C         1.484477         0.018855        -0.108980
 C         2.132166        -0.747563         1.212072
 O         3.320091        -1.381579         1.119519
 C         4.443809        -0.565553         1.408102
 C         4.661464         0.537808         0.412819
 C         3.900470         1.016534        -0.527978
 C         2.405911         0.885700        -0.881769
 O         1.854038        -0.306676        -1.460661
 H         0.346375         1.308081         0.804128
 H        -0.647156         0.510896        -0.477919
 H        -0.239005        -0.480047         1.086013
 H         2.048971         0.047579         2.059680
 H         1.341535        -1.550638         1.487930
 H         4.462908        -0.254445         2.435630
 H         5.263452        -1.259043         1.339639
 H         5.666971         0.962465         0.566069
 H         4.456014         1.806742        -1.028529
 H         2.005733         1.855204        -1.344713
