19
Iteration:  3102
 C         0.262286         0.656619         0.528893
 C         1.537773        -0.015839         0.003179
 C         2.044613        -1.208649         0.887849
 O         3.442988        -1.570244         0.802856
 C         4.264182        -0.562759         1.380746
 C         4.573647         0.701226         0.548020
 C         3.850509         1.205817        -0.431695
 C         2.452588         0.877622        -0.675251
 O         1.863761        -0.252434        -1.425906
 H         0.091997         1.515021         0.007080
 H        -0.594212         0.144087         0.532625
 H         0.517111         0.936961         1.462305
 H         1.765848        -0.994979         2.030154
 H         1.518435        -2.167319         0.554106
 H         3.988262        -0.169268         2.359254
 H         5.186720        -1.247987         1.491130
 H         5.652077         1.029146         0.778364
 H         4.246761         1.908462        -1.107116
 H         1.836893         1.825731        -1.013535
