19
Iteration:   879charge 0 multiplicity 1
 C         0.056188         0.339715         0.205376
 C         1.527557        -0.011179         0.058776
 C         2.053881        -0.825090         1.206594
 O         3.343630        -1.351483         1.063939
 C         4.480233        -0.476355         1.429168
 C         4.782376         0.456664         0.308283
 C         3.885234         0.995925        -0.626765
 C         2.402974         0.885971        -0.715875
 O         1.816357        -0.260686        -1.322022
 H        -0.140974         0.849171         1.104990
 H        -0.202793         1.059783        -0.636141
 H        -0.558994        -0.535049         0.153948
 H         2.061242        -0.112222         2.055339
 H         1.388060        -1.732679         1.376206
 H         4.139304         0.161388         2.294152
 H         5.253635        -1.114249         1.700947
 H         5.815798         0.759176         0.183067
 H         4.426594         1.710456        -1.336772
 H         1.940500         1.829024        -1.111983
