19
Iteration:  2813
 C         0.114678         0.294973         0.194822
 C         1.615700        -0.049557         0.042761
 C         2.058146        -0.973860         1.146721
 O         3.237860        -1.596789         1.124876
 C         4.426946        -0.697911         1.116809
 C         4.620173         0.462165         0.216350
 C         3.788080         1.292280        -0.317158
 C         2.409698         1.124744        -0.568322
 O         2.047070        -0.029954        -1.338334
 H        -0.185583         0.453554        -0.794880
 H        -0.396120        -0.461241         0.626340
 H        -0.175226         1.124882         0.692575
 H         1.860958        -0.407555         2.010416
 H         1.316088        -1.821460         1.151300
 H         4.486173        -0.394629         2.072226
 H         5.275838        -1.469377         0.884590
 H         5.720587         0.781647         0.356959
 H         4.267837         2.132976        -0.756738
 H         1.815821         2.128473        -0.767338
