19
Iteration:  3833
 C         0.101397         0.380560         0.192693
 C         1.533426         0.031321         0.054384
 C         2.015929        -0.916532         1.173075
 O         3.299264        -1.537320         0.900739
 C         4.435956        -0.711654         1.142857
 C         4.638651         0.520891         0.299219
 C         3.773110         1.298295        -0.332882
 C         2.394633         1.059874        -0.514004
 O         2.070541        -0.244043        -1.270385
 H        -0.214217         0.887008        -0.701392
 H        -0.458610        -0.725791         0.387405
 H         0.049116         0.946130         1.162672
 H         1.979366        -0.319765         2.068178
 H         1.242526        -1.729197         1.199677
 H         4.497325        -0.424836         2.310575
 H         5.332930        -1.317495         1.198166
 H         5.763588         0.760535         0.191331
 H         4.256519         2.090135        -0.881936
 H         1.862642         1.853459        -1.164883
