19
Iteration:  4021
 C         0.032241         0.279309         0.242630
 C         1.484664         0.011527        -0.009711
 C         2.082387        -1.025598         1.034871
 O         3.403700        -1.503425         0.951114
 C         4.421281        -0.632827         1.415083
 C         4.751278         0.394503         0.337201
 C         3.863019         1.101149        -0.464478
 C         2.401763         1.121084        -0.516999
 O         1.895352         0.077639        -1.371741
 H        -0.442758         1.080755        -0.357456
 H        -0.569758        -0.672867         0.025570
 H        -0.104939         0.403213         1.289118
 H         1.982954        -0.326710         1.907592
 H         1.427198        -1.971665         1.088750
 H         4.099456        -0.186745         2.503467
 H         5.260097        -1.257359         1.598640
 H         5.756758         0.621023         0.307588
 H         4.414619         1.573354        -1.281487
 H         1.900317         2.041578        -0.779867
