19
Iteration:  3363charge 0 multiplicity 1
 C         0.039117         0.354488         0.265751
 C         1.554323         0.046001         0.042427
 C         2.058335        -0.919539         1.109278
 O         3.305456        -1.548734         0.893810
 C         4.483773        -0.779834         1.161136
 C         4.634304         0.518052         0.406248
 C         3.860814         1.311151        -0.314739
 C         2.354927         1.073684        -0.598343
 O         2.008398        -0.179159        -1.299155
 H        -0.385864         0.265248        -0.811337
 H        -0.405906        -0.482972         0.881449
 H        -0.247169         1.329886         0.862246
 H         1.866017        -0.449113         2.057540
 H         1.437409        -1.774234         1.092704
 H         4.650580        -0.593197         2.347103
 H         5.319462        -1.357640         0.889136
 H         5.695803         0.838344         0.287896
 H         4.308608         2.228468        -0.784108
 H         1.858222         1.866729        -1.158468
