19
Iteration:  4931charge 0 multiplicity 1
 C         0.179177         0.461212         0.430692
 C         1.610514         0.057822         0.010918
 C         2.046229        -1.116806         0.967465
 O         3.381835        -1.468102         0.759655
 C         4.396364        -0.768927         1.367276
 C         4.546833         0.556343         0.646265
 C         3.802309         1.195561        -0.307752
 C         2.414794         0.992101        -0.747938
 O         1.922999        -0.127914        -1.484905
 H         0.184611         1.089455         1.396222
 H        -0.272598         1.162805        -0.387570
 H        -0.407693        -0.414571         0.699799
 H         1.872366        -0.813454         1.956712
 H         1.248744        -1.895620         0.878257
 H         4.368915        -0.541399         2.432373
 H         5.388171        -1.292434         1.255267
 H         5.481699         1.187911         0.812861
 H         4.250148         2.149847        -0.675646
 H         1.999384         1.847003        -1.143381
