19
Iteration:  3495
 C         0.099705         0.553008         0.396165
 C         1.457960         0.009596        -0.016810
 C         2.068795        -0.997253         1.046116
 O         3.429847        -1.476470         0.826769
 C         4.491407        -0.729703         1.253065
 C         4.587526         0.632067         0.605513
 C         3.796067         1.165964        -0.355289
 C         2.453572         0.920866        -0.690285
 O         1.880478        -0.291988        -1.426114
 H        -0.096626         1.660727         0.054370
 H        -0.769501         0.084270         0.014138
 H         0.007092         0.561792         1.547943
 H         2.050764        -0.440774         2.107047
 H         1.549226        -1.924948         1.099052
 H         4.561982        -0.623871         2.373987
 H         5.380091        -1.180335         0.843404
 H         5.533400         1.089968         0.689294
 H         4.324027         1.996128        -0.874734
 H         1.976877         1.881814        -1.097494
