19
Iteration:  2648charge 0 multiplicity 1
 C         0.002773         0.262875         0.344960
 C         1.544299         0.036456         0.058120
 C         2.039941        -1.037694         1.057924
 O         3.385221        -1.405599         0.867885
 C         4.317362        -0.491772         1.377742
 C         4.787683         0.418021         0.366110
 C         3.921386         1.048559        -0.493161
 C         2.512080         1.008346        -0.601011
 O         1.861955        -0.061949        -1.339187
 H        -0.065929         1.039947         1.130342
 H        -0.514207         0.583675        -0.512384
 H        -0.521735        -0.564994         0.602621
 H         1.728875        -0.650300         2.091628
 H         1.449245        -1.956168         0.792677
 H         3.811275         0.043485         2.205682
 H         5.370728        -0.909420         1.705071
 H         5.846317         0.727854         0.330948
 H         4.447669         1.646396        -1.280289
 H         1.935913         2.058896        -0.818990
