19
Iteration:  3510charge 0 multiplicity 1
 C         0.036320         0.512530         0.386606
 C         1.520244         0.013880         0.017325
 C         2.127197        -0.940916         0.997014
 O         3.387348        -1.483550         0.709264
 C         4.441168        -0.667841         1.303138
 C         4.735169         0.613708         0.610317
 C         3.891923         1.165001        -0.336737
 C         2.426287         0.887974        -0.727088
 O         1.782747        -0.290791        -1.329860
 H        -0.061081         1.644097         0.103343
 H        -0.637352        -0.295524        -0.170955
 H        -0.109560         0.507128         1.502441
 H         2.111513        -0.428128         1.980963
 H         1.338763        -1.733022         1.114081
 H         4.217056        -0.439863         2.305767
 H         5.340253        -1.268432         1.242517
 H         5.744904         1.079615         0.860894
 H         4.168500         2.083105        -0.806379
 H         1.969706         1.694195        -1.182536
