19
Iteration:  1829charge 0 multiplicity 1
 C         0.008488         0.476254         0.111615
 C         1.504278        -0.002300         0.106785
 C         2.068591        -1.009521         1.231889
 O         3.341699        -1.440667         1.166298
 C         4.401459        -0.422005         1.393643
 C         4.744081         0.420131         0.137719
 C         3.831256         1.085053        -0.689439
 C         2.393855         0.974495        -0.615591
 O         2.050822        -0.288715        -1.209712
 H        -0.102268         0.976923         1.020986
 H        -0.064302         1.188673        -0.736715
 H        -0.845816        -0.306762         0.188333
 H         1.867695        -0.584662         2.261173
 H         1.379430        -1.934821         1.044041
 H         4.119294         0.344838         2.122169
 H         5.226732        -1.097503         1.617459
 H         5.789578         0.791156        -0.109781
 H         4.023550         1.671235        -1.525097
 H         1.854790         1.821949        -1.254988
