19
Iteration:  3870charge 0 multiplicity 1
 C         0.159530         0.427151         0.352039
 C         1.522686         0.112027        -0.047659
 C         2.079582        -0.853246         1.097192
 O         3.342878        -1.603577         0.888981
 C         4.549780        -0.754310         1.188209
 C         4.539308         0.641217         0.629480
 C         3.824702         1.227047        -0.303645
 C         2.434814         0.952029        -0.805002
 O         1.848180        -0.314169        -1.383978
 H        -0.332714         1.200295        -0.303405
 H        -0.453589        -0.351606         0.304827
 H         0.129448         0.840966         1.343209
 H         2.240442        -0.309334         1.983289
 H         1.417085        -1.571814         1.355686
 H         4.578013        -0.536072         2.343443
 H         5.385789        -1.341310         0.727190
 H         5.400791         1.208113         0.909270
 H         4.104986         2.183375        -0.746143
 H         2.088867         1.799998        -1.293121
