19
Iteration:   597
 C         0.081048         0.286690         0.157567
 C         1.529073        -0.005832        -0.082619
 C         2.119444        -0.692708         1.242551
 O         3.365704        -1.398013         1.278721
 C         4.596368        -0.676496         1.390193
 C         4.707798         0.433540         0.388677
 C         3.819075         1.097002        -0.544487
 C         2.304136         1.022219        -0.788694
 O         1.797728        -0.270575        -1.416646
 H        -0.098084         0.493990         1.229162
 H        -0.222872         1.122339        -0.501181
 H        -0.620796        -0.555591        -0.107948
 H         2.077587         0.223643         1.872208
 H         1.330928        -1.355822         1.476900
 H         4.874830        -0.462986         2.447452
 H         5.270717        -1.527838         0.886405
 H         5.691337         0.901307         0.271090
 H         4.234444         1.917665        -1.137407
 H         1.904990         1.836791        -1.340412
