19
Iteration:    75
 C         0.081497         0.341587         0.153598
 C         1.547153         0.051590         0.017469
 C         2.139759        -0.583384         1.273429
 O         3.263396        -1.427766         1.069961
 C         4.541597        -0.745508         1.214338
 C         4.681314         0.491557         0.373469
 C         3.738301         1.180944        -0.422951
 C         2.285999         0.964298        -0.744808
 O         1.992341        -0.436831        -1.310249
 H        -0.059973         1.302676         0.821124
 H        -0.395937         0.486267        -0.734636
 H        -0.484104        -0.508381         0.727160
 H         2.451336         0.175839         2.005688
 H         1.390540        -1.291142         1.650510
 H         4.679404        -0.523625         2.320494
 H         5.344161        -1.450284         0.927367
 H         5.659041         0.924053         0.250742
 H         4.250136         1.878013        -1.177350
 H         1.827296         1.891240        -1.277725
