19
Iteration:  1785charge 0 multiplicity 1
 C         0.073665         0.316027         0.398501
 C         1.529569         0.043844        -0.028557
 C         2.061082        -0.845027         1.122660
 O         3.397346        -1.360145         1.166140
 C         4.329262        -0.433573         1.486197
 C         4.799750         0.458531         0.316669
 C         4.003918         0.904349        -0.693932
 C         2.450303         0.916812        -0.820500
 O         1.749644        -0.201758        -1.413198
 H         0.031416         0.281729         1.451183
 H        -0.439691         1.151894        -0.069080
 H        -0.460317        -0.623045         0.039055
 H         1.835805        -0.373987         2.094431
 H         1.566327        -1.854993         1.184611
 H         3.723766         0.188683         2.203557
 H         5.217987        -0.912166         1.886743
 H         5.839126         0.787503         0.350006
 H         4.385868         1.570469        -1.426320
 H         1.924087         1.916726        -1.098295
