19
Iteration:  3964charge 0 multiplicity 1
 C         0.022561         0.263254         0.166882
 C         1.573022         0.114545         0.123639
 C         2.030332        -0.996041         1.063274
 O         3.313286        -1.573174         1.091057
 C         4.415866        -0.725121         1.193464
 C         4.687258         0.433007         0.281841
 C         3.873356         1.255100        -0.430896
 C         2.373263         1.127181        -0.509827
 O         2.039984        -0.034182        -1.323965
 H        -0.319731         0.719622        -0.705635
 H        -0.555241        -0.701606         0.233074
 H        -0.364073         0.864212         0.975178
 H         1.796962        -0.778678         2.165841
 H         1.398888        -1.995532         0.947353
 H         4.408523        -0.240746         2.268709
 H         5.307742        -1.333671         1.017193
 H         5.740727         0.764553         0.106270
 H         4.199949         2.137520        -0.916456
 H         1.976163         2.096376        -0.979322
