19
Iteration:  1652
 C        -0.021462         0.290807         0.277072
 C         1.439964         0.090274        -0.059711
 C         2.098620        -0.773044         1.123432
 O         3.380385        -1.408906         1.110552
 C         4.441260        -0.582737         1.387533
 C         4.767184         0.505388         0.361417
 C         3.961978         1.005746        -0.574436
 C         2.475975         0.894244        -0.780571
 O         1.804182        -0.263463        -1.331094
 H        -0.221831         1.268493         0.805843
 H        -0.782235         0.114057        -0.432363
 H        -0.284227        -0.433114         0.977594
 H         2.179196         0.072097         1.811397
 H         1.395611        -1.519921         1.506710
 H         4.224217        -0.050153         2.377670
 H         5.334288        -1.184721         1.672645
 H         5.727814         0.944810         0.470119
 H         4.372789         1.954037        -1.167419
 H         2.083614         1.889952        -1.275483
