19
Iteration:   750charge 0 multiplicity 1
 C         0.008856         0.387628         0.392439
 C         1.499525         0.086487         0.011145
 C         2.029344        -0.797950         1.122479
 O         3.300157        -1.395791         0.941182
 C         4.400297        -0.512988         1.412344
 C         4.765401         0.588671         0.342644
 C         3.964603         1.082711        -0.574006
 C         2.459344         0.840713        -0.802271
 O         1.926842        -0.418908        -1.260424
 H        -0.142761         1.278556         1.019264
 H        -0.446650         0.506340        -0.717396
 H        -0.383496        -0.604697         0.737563
 H         1.912803        -0.177772         2.128134
 H         1.277271        -1.597486         1.182735
 H         4.050910        -0.073410         2.303768
 H         5.266788        -1.172533         1.754280
 H         5.820136         0.891057         0.395959
 H         4.405070         1.703883        -1.185824
 H         2.026363         1.646243        -1.331247
