19
Iteration:  3945
 C         0.055524         0.402510         0.150643
 C         1.540917         0.043068         0.106801
 C         1.965653        -1.003806         1.133710
 O         3.313537        -1.514053         0.817035
 C         4.457972        -0.679347         1.207219
 C         4.719032         0.501558         0.348124
 C         3.837279         1.287345        -0.341976
 C         2.391455         1.048787        -0.578363
 O         2.046724        -0.209791        -1.178292
 H        -0.323674         0.968770        -0.766111
 H        -0.727261        -0.520948         0.187029
 H        -0.183974         0.911595         1.096474
 H         1.892794        -0.666194         2.212348
 H         1.373170        -1.962122         1.052875
 H         4.339776        -0.346175         2.184339
 H         5.297172        -1.332480         1.119489
 H         5.731898         0.838221         0.302772
 H         4.300070         2.067213        -0.949086
 H         1.872215         1.895701        -0.932398
