19
Iteration:  3989
 C         0.119707         0.175471         0.192106
 C         1.558183         0.010837        -0.058942
 C         2.031715        -1.012392         1.085636
 O         3.298394        -1.537846         1.185242
 C         4.449054        -0.713045         1.293212
 C         4.743843         0.348945         0.224031
 C         3.930023         1.252385        -0.356249
 C         2.374026         1.196954        -0.482632
 O         1.859212         0.117362        -1.478268
 H        -0.546224         0.635642        -0.612536
 H        -0.335651        -0.910444         0.309179
 H        -0.115523         0.646312         1.152038
 H         1.840318        -0.470322         2.104987
 H         1.425796        -1.941322         1.211925
 H         4.432330        -0.169776         2.235301
 H         5.257408        -1.376239         1.241457
 H         5.737331         0.601810         0.112791
 H         4.310528         1.979272        -1.092829
 H         1.938105         2.106219        -0.700521
