19
Iteration:  2374
 C         0.007856         0.339761         0.099502
 C         1.471960        -0.006680         0.094158
 C         2.065291        -0.668604         1.231082
 O         3.286167        -1.274736         0.866449
 C         4.481322        -0.693195         1.259685
 C         4.791698         0.521879         0.315700
 C         3.867807         1.156445        -0.420997
 C         2.336511         0.903372        -0.646474
 O         1.982742        -0.456019        -1.136649
 H        -0.112499         1.519946         0.350804
 H        -0.537257         0.022779        -0.832146
 H        -0.566774        -0.127926         0.809918
 H         2.197386        -0.028288         2.179088
 H         1.360611        -1.517530         1.389703
 H         4.616390        -0.441858         2.322863
 H         5.218059        -1.356265         0.968683
 H         5.758101         0.701260         0.149750
 H         4.369268         1.919498        -0.995455
 H         2.068172         1.833379        -1.166684
