19
Iteration:  1797charge 0 multiplicity 1
 C         0.152265         0.313217         0.281631
 C         1.575284         0.005511         0.013100
 C         2.085206        -0.901317         1.133215
 O         3.336835        -1.401688         1.172626
 C         4.380345        -0.377290         1.494080
 C         4.786328         0.428099         0.218976
 C         3.918365         1.012945        -0.635469
 C         2.455717         0.923089        -0.710923
 O         1.704611        -0.232687        -1.385196
 H        -0.070259         0.513702         1.265551
 H        -0.182757         1.226650        -0.242246
 H        -0.488492        -0.587362        -0.048591
 H         1.877843        -0.271169         2.011583
 H         1.276940        -1.711945         1.086522
 H         4.138300         0.361009         2.341580
 H         5.114882        -0.952558         1.988335
 H         5.877346         0.690703         0.113144
 H         4.396596         1.569567        -1.387311
 H         2.096701         1.928718        -1.221860
