19
Iteration:  1372
 C         0.072379         0.333927         0.386531
 C         1.531482         0.110599        -0.030660
 C         2.053019        -0.766794         1.198406
 O         3.415534        -1.360323         0.939094
 C         4.328874        -0.446448         1.497478
 C         4.715670         0.530384         0.445656
 C         4.030065         0.960126        -0.583953
 C         2.410496         0.829655        -0.937985
 O         1.779293        -0.367926        -1.341555
 H         0.005721         1.071228         1.181170
 H        -0.404607         0.800520        -0.446447
 H        -0.461899        -0.647459         0.804169
 H         2.011395        -0.009190         2.074393
 H         1.445701        -1.623826         1.203935
 H         4.023812        -0.174007         2.550102
 H         5.218808        -1.122206         1.742915
 H         5.803735         0.798101         0.448514
 H         4.453850         1.738592        -1.342733
 H         2.026449         1.671677        -1.450267
