19
Iteration:   547charge 0 multiplicity 1
 C         0.107127         0.393556         0.190442
 C         1.585747         0.022894         0.083080
 C         1.990728        -0.841403         1.232360
 O         3.247951        -1.415493         1.106131
 C         4.462625        -0.637133         1.248939
 C         4.650708         0.560324         0.243623
 C         3.889134         1.246020        -0.578883
 C         2.369930         0.963946        -0.763833
 O         2.045912        -0.428236        -1.157136
 H         0.063725         1.160639         0.962489
 H        -0.303686         0.754250        -0.818681
 H        -0.540228        -0.386295         0.520545
 H         1.760597        -0.280976         2.148542
 H         1.299592        -1.728494         1.009133
 H         4.384391        -0.074817         2.275461
 H         5.177560        -1.375010         1.274278
 H         5.752009         0.728316         0.081740
 H         4.263160         1.898519        -1.297546
 H         1.718432         1.772445        -1.158902
