19
Iteration:  2122charge 0 multiplicity 1
 C         0.176510         0.609308         0.243912
 C         1.516538        -0.073696         0.097270
 C         2.056212        -1.007462         1.148200
 O         3.358965        -1.315073         0.830503
 C         4.338514        -0.483415         1.315712
 C         4.728511         0.680028         0.436887
 C         3.911027         1.040085        -0.549798
 C         2.476543         0.802385        -0.674586
 O         1.806213        -0.489933        -1.224583
 H         0.033775         1.331569         1.161209
 H        -0.223836         1.079381        -0.674353
 H        -0.499531        -0.130446         0.398420
 H         2.036410        -0.401434         2.068158
 H         1.451258        -1.910909         1.302072
 H         3.816788         0.073696         2.210736
 H         5.172457        -1.130843         1.759738
 H         5.750677         1.217379         0.481222
 H         4.258660         1.775030        -1.301984
 H         2.059654         1.630309        -1.274462
