19
Iteration:   336
 C         0.105517         0.447052         0.369032
 C         1.544441        -0.005594        -0.039172
 C         2.079873        -0.865053         1.177044
 O         3.350309        -1.487664         1.164945
 C         4.361988        -0.490259         1.350271
 C         4.669033         0.567680         0.318182
 C         3.822134         1.109737        -0.691922
 C         2.428261         0.981066        -0.761248
 O         1.942195        -0.402039        -1.319741
 H         0.340305         0.909560         1.409125
 H        -0.370785         1.119981        -0.278812
 H        -0.651616        -0.421105         0.487886
 H         2.165025        -0.205345         2.085341
 H         1.325196        -1.731899         1.307116
 H         4.117132         0.111053         2.216641
 H         5.245677        -1.036603         1.489921
 H         5.715241         0.611596         0.038497
 H         4.324194         1.687362        -1.451053
 H         1.919985         1.719689        -1.452006
