19
Iteration:   638charge 0 multiplicity 1
 C         0.015187         0.292875         0.147537
 C         1.530606         0.052240         0.098623
 C         1.995264        -0.731211         1.343226
 O         3.175213        -1.323092         0.886108
 C         4.415357        -0.586340         1.255649
 C         4.794588         0.508018         0.284932
 C         3.934258         1.177484        -0.557070
 C         2.482053         0.916200        -0.772905
 O         2.007934        -0.469138        -1.096175
 H        -0.410841         0.488741         1.227819
 H        -0.386872         1.085684        -0.471397
 H        -0.610637        -0.609991        -0.222081
 H         2.376625        -0.102884         2.169201
 H         1.340417        -1.596015         1.663851
 H         4.161027        -0.083448         2.235289
 H         5.237939        -1.354879         1.348838
 H         5.821717         0.891008         0.341896
 H         4.483882         2.066859        -1.148550
 H         1.993288         1.806668        -1.342030
