19
Iteration:   280charge 0 multiplicity 1
 C         0.007062         0.571744         0.187215
 C         1.458386        -0.047296         0.069929
 C         2.038706        -0.902087         1.187097
 O         3.381788        -1.417008         1.050963
 C         4.502468        -0.587744         1.307221
 C         4.681267         0.643674         0.358101
 C         3.896655         1.183184        -0.660474
 C         2.419538         0.833864        -0.716179
 O         1.887192        -0.440465        -1.177748
 H         0.089126         1.449909         0.926753
 H        -0.219408         0.920590        -0.730514
 H        -0.664303        -0.262061         0.581513
 H         2.032985        -0.287135         2.169974
 H         1.388385        -1.865629         1.326465
 H         4.661600        -0.258649         2.386256
 H         5.315358        -1.195653         1.060309
 H         5.750578         0.891429         0.356146
 H         4.363303         1.760651        -1.519745
 H         1.871520         1.686577        -1.276925
