19
Iteration:  1734charge 0 multiplicity 1
 C         0.163441         0.574158         0.268008
 C         1.560162        -0.031679         0.116145
 C         2.055717        -1.072351         1.102314
 O         3.378182        -1.373536         0.959056
 C         4.305218        -0.281415         1.429098
 C         4.734606         0.474444         0.296444
 C         3.921162         1.039217        -0.613166
 C         2.476492         0.836669        -0.693568
 O         1.779833        -0.403936        -1.257735
 H         0.021138         1.052542         1.224772
 H         0.212000         1.355004        -0.517644
 H        -0.648519        -0.226068         0.214989
 H         1.836663        -0.744348         2.146077
 H         1.520012        -2.060954         0.924726
 H         3.739493         0.316871         2.161138
 H         5.157741        -0.747946         1.873514
 H         5.761758         0.993813         0.311998
 H         4.262502         1.820195        -1.220186
 H         1.953006         1.673447        -1.164528
