19
Iteration:   401charge 0 multiplicity 1
 C        -0.127514         0.416294         0.236358
 C         1.420790         0.025546         0.121893
 C         2.012620        -0.893569         1.152723
 O         3.357626        -1.288166         0.990584
 C         4.451270        -0.392276         1.317295
 C         4.851057         0.477211         0.249149
 C         3.945172         1.013686        -0.627409
 C         2.445645         0.847301        -0.623684
 O         1.953146        -0.384808        -1.164774
 H        -0.250037         0.964488         1.236268
 H        -0.200942         1.179972        -0.442604
 H        -0.857997        -0.434867         0.042614
 H         1.832377        -0.415664         2.068728
 H         1.492228        -1.874989         1.050998
 H         4.261675         0.214272         2.248445
 H         5.221983        -1.039503         1.538735
 H         5.911404         0.609271         0.074512
 H         4.465811         1.421321        -1.618349
 H         2.109361         1.683994        -1.279794
