19
Iteration:  2975
 C         0.022440         0.328746         0.097197
 C         1.520967         0.054058         0.139543
 C         2.054244        -1.000280         1.173130
 O         3.292197        -1.595476         1.013756
 C         4.423252        -0.708054         1.134521
 C         4.698339         0.546214         0.271493
 C         3.830585         1.252276        -0.395847
 C         2.434982         1.049905        -0.568462
 O         2.046752        -0.098432        -1.239557
 H        -0.141342         1.258315        -0.684681
 H        -0.678544        -0.615677        -0.021850
 H        -0.230336         0.758197         1.176983
 H         1.952546        -0.391663         2.156487
 H         1.351605        -1.871599         1.182254
 H         4.481073        -0.414482         2.182628
 H         5.214515        -1.404448         0.997381
 H         5.764895         0.877524         0.109799
 H         4.119037         2.183236        -0.903677
 H         1.874721         1.919514        -0.757389
