19
Iteration:  1423
 C         0.030967         0.523807         0.141468
 C         1.501703        -0.009338         0.038472
 C         2.056816        -0.918350         1.289368
 O         3.317920        -1.399670         1.133812
 C         4.496058        -0.556859         1.290661
 C         4.721401         0.525632         0.283198
 C         3.841192         1.214765        -0.558654
 C         2.411179         0.862252        -0.724988
 O         1.946271        -0.429742        -1.256998
 H        -0.176417         1.592315         0.514704
 H        -0.254486         0.643704        -0.924497
 H        -0.656842        -0.036761         0.773112
 H         1.913375        -0.322489         2.175941
 H         1.409930        -1.887908         1.259867
 H         4.433036        -0.075532         2.324579
 H         5.353873        -1.382953         1.274553
 H         5.771226         0.931923         0.192652
 H         4.325432         1.926923        -1.301012
 H         1.887852         1.642061        -1.383947
