19
Iteration:  2792charge 0 multiplicity 1
 C        -0.007307         0.290032         0.173625
 C         1.499494         0.056345         0.041376
 C         2.023591        -0.968988         1.101239
 O         3.367887        -1.565558         1.004294
 C         4.501354        -0.768758         1.286644
 C         4.725659         0.453742         0.332057
 C         3.892474         1.285248        -0.381042
 C         2.376225         1.132136        -0.537090
 O         1.917771        -0.080173        -1.366815
 H        -0.391403         0.625040        -0.736996
 H        -0.499768        -0.521132         0.584691
 H        -0.183056         1.087252         0.824937
 H         1.953044        -0.410560         2.040789
 H         1.414135        -1.880922         1.114129
 H         4.456621        -0.199866         2.214685
 H         5.463645        -1.464008         1.276581
 H         5.830550         0.595992         0.280526
 H         4.335634         2.109509        -0.956189
 H         1.856745         2.106552        -1.003975
