19
Iteration:  3452charge 0 multiplicity 1
 C         0.092815         0.402878         0.261369
 C         1.549463         0.061545         0.075919
 C         2.048310        -0.948251         1.125653
 O         3.329484        -1.631962         0.909608
 C         4.398750        -0.721515         1.144407
 C         4.663596         0.527758         0.359293
 C         3.848785         1.436933        -0.314247
 C         2.448838         1.016455        -0.647937
 O         1.947533        -0.236066        -1.286621
 H        -0.456313         0.938366        -0.697389
 H        -0.497360        -0.551167         0.320690
 H        -0.066796         0.791213         1.377409
 H         2.002238        -0.521712         2.165493
 H         1.376073        -1.743953         0.968537
 H         4.398871        -0.449220         2.159444
 H         5.212516        -1.314203         1.085271
 H         5.678149         0.728801         0.616312
 H         4.320542         2.334995        -0.818693
 H         1.939879         1.835625        -1.160651
