19
Iteration:  4336
 C         0.078408         0.495089         0.212491
 C         1.527982         0.060788         0.090494
 C         1.963032        -1.046137         1.007657
 O         3.289392        -1.547071         0.697584
 C         4.369857        -0.737436         1.087519
 C         4.710315         0.603274         0.441093
 C         3.832005         1.371638        -0.147526
 C         2.447868         0.965678        -0.550082
 O         2.082013        -0.324863        -1.201494
 H        -0.526642         0.118186         1.131861
 H         0.075154         1.641361         0.420561
 H        -0.371490         0.381855        -0.781277
 H         1.928379        -0.810588         2.119867
 H         1.315328        -1.862257         1.031318
 H         4.404735        -0.532666         2.180135
 H         5.398272        -1.273461         1.010416
 H         5.639158         1.039374         0.715873
 H         4.064744         2.417641        -0.449628
 H         1.924807         1.740932        -0.983179
