19
Iteration:  1995charge 0 multiplicity 1
 C         0.025606         0.236620         0.061418
 C         1.489695         0.111886         0.089731
 C         2.068155        -0.689334         1.372609
 O         3.228953        -1.366843         1.081900
 C         4.430737        -0.667030         1.155702
 C         4.801065         0.477879         0.191514
 C         3.889159         1.226793        -0.497096
 C         2.477768         0.889040        -0.705349
 O         1.947817        -0.372426        -1.172201
 H        -0.419762         0.477949         0.953591
 H        -0.283177         0.984081        -0.684567
 H        -0.493966        -0.843521        -0.069950
 H         2.247305        -0.127936         2.277590
 H         1.230536        -1.440541         1.526866
 H         4.371405        -0.183888         2.247131
 H         5.158376        -1.471506         1.172239
 H         5.857003         0.848229         0.254198
 H         4.190611         2.229022        -0.955262
 H         2.072211         1.796471        -1.253557
