19
Iteration:  3741charge 0 multiplicity 1
 C         0.122903         0.345404         0.382570
 C         1.549567         0.062971         0.024416
 C         2.081865        -0.940906         1.021659
 O         3.356883        -1.579137         0.944394
 C         4.412272        -0.700708         1.281430
 C         4.654183         0.509474         0.421562
 C         3.830738         1.239548        -0.376044
 C         2.369837         1.049035        -0.735013
 O         1.937143        -0.160538        -1.396072
 H        -0.145522         1.432896         0.007309
 H        -0.642936        -0.404538         0.043276
 H         0.009990         0.327586         1.499523
 H         2.022763        -0.418126         1.954277
 H         1.371138        -1.800535         1.090424
 H         4.301263        -0.285066         2.308930
 H         5.340938        -1.235244         1.408488
 H         5.644454         0.885640         0.647300
 H         4.254020         2.196859        -0.781998
 H         1.829545         1.826018        -1.168068
