19
Iteration:  1699
 C         0.149260         0.606351         0.290609
 C         1.558425        -0.047255         0.066959
 C         2.046899        -1.057207         1.138918
 O         3.351353        -1.484748         1.023895
 C         4.322718        -0.356315         1.347262
 C         4.674354         0.569817         0.256798
 C         3.867530         1.080799        -0.622732
 C         2.428557         0.913860        -0.671728
 O         1.967137        -0.422365        -1.211388
 H         0.189765         1.506003         0.779868
 H        -0.332054         0.812990        -0.686580
 H        -0.742050         0.006752         0.680192
 H         1.669393        -0.676732         2.085155
 H         1.373568        -1.937131         0.806673
 H         3.950862         0.095664         2.289800
 H         5.211661        -0.798284         1.656624
 H         5.725933         0.902284         0.310564
 H         4.264443         1.721892        -1.330042
 H         1.971474         1.819241        -1.220365
