19
Iteration:   107
 C        -0.118814         0.137176         0.202956
 C         1.470781         0.177794         0.073330
 C         2.180900        -0.472289         1.314095
 O         3.195702        -1.387600         0.911097
 C         4.461135        -0.771709         1.170485
 C         4.778761         0.536474         0.411925
 C         3.999985         1.156871        -0.472953
 C         2.515456         0.900705        -0.871428
 O         1.867970        -0.417160        -1.169716
 H        -0.403158         0.723912         1.211587
 H        -0.525708         0.567274        -0.636237
 H        -0.376562        -1.025309         0.236238
 H         2.551688         0.300401         1.965949
 H         1.429357        -1.009275         1.930840
 H         4.463612        -0.497534         2.243408
 H         5.358377        -1.565725         1.028287
 H         5.644281         1.061137         0.821566
 H         4.327404         2.107788        -1.008752
 H         1.993177         1.701891        -1.557980
