19
Iteration:  3463charge 0 multiplicity 1
 C         0.165419         0.439620         0.311729
 C         1.591413         0.061067         0.016355
 C         2.031936        -1.007101         1.083455
 O         3.358913        -1.612444         0.959900
 C         4.390435        -0.725400         1.112740
 C         4.599158         0.596880         0.426648
 C         3.822224         1.326050        -0.308473
 C         2.457357         1.000146        -0.681090
 O         1.909258        -0.254173        -1.314944
 H        -0.091603         1.406414        -0.386001
 H        -0.449778        -0.458536         0.100951
 H        -0.009337         0.942673         1.364052
 H         1.925756        -0.561923         2.123457
 H         1.347357        -1.820971         1.087202
 H         4.456747        -0.434931         2.116246
 H         5.242444        -1.223727         0.893345
 H         5.559056         0.989471         0.652738
 H         4.071066         2.347938        -0.678003
 H         1.908477         1.847359        -1.092780
