19
Iteration:  4252
 C         0.001444         0.322681         0.286188
 C         1.507191         0.055529        -0.054470
 C         2.080968        -0.932521         0.984817
 O         3.366624        -1.539221         0.937750
 C         4.513565        -0.764392         1.258684
 C         4.683664         0.486837         0.489765
 C         3.880758         1.186040        -0.327538
 C         2.400912         1.068169        -0.575418
 O         1.910639        -0.094245        -1.411003
 H        -0.552790        -0.617094         0.529968
 H        -0.026062         0.927422         1.154800
 H        -0.501011         0.968435        -0.478630
 H         2.024336        -0.285147         1.865985
 H         1.322352        -1.829679         1.099447
 H         4.245133        -0.304965         2.326260
 H         5.282518        -1.511834         1.248894
 H         5.696629         0.965485         0.635080
 H         4.326279         2.119894        -0.638650
 H         1.872661         2.104798        -0.885109
