19
Iteration:  2228
 C        -0.016288         0.441802         0.203124
 C         1.544667        -0.020556         0.127270
 C         2.053346        -1.039337         1.133360
 O         3.393600        -1.365439         1.049420
 C         4.213665        -0.279060         1.389457
 C         4.822155         0.418739         0.066375
 C         3.911653         0.993463        -0.635253
 C         2.439678         0.944429        -0.508713
 O         1.990287        -0.262792        -1.195641
 H        -0.293784         0.892451         1.203462
 H        -0.102014         1.129281        -0.635509
 H        -0.540710        -0.645057         0.065304
 H         1.763501        -0.691304         2.212651
 H         1.547738        -2.026477         0.941764
 H         3.635216         0.494252         2.084859
 H         5.029292        -0.603883         2.006123
 H         5.909745         0.230826        -0.212650
 H         4.238752         1.301060        -1.661226
 H         1.996992         1.930557        -0.924961
