19
Iteration:  4917
 C         0.195881         0.478015         0.503969
 C         1.506200         0.049666        -0.063731
 C         2.085967        -0.943683         0.823613
 O         3.377570        -1.568982         0.764304
 C         4.414521        -0.712276         1.347416
 C         4.574658         0.624000         0.761938
 C         3.819130         1.152813        -0.273283
 C         2.420803         1.003094        -0.763842
 O         1.894383        -0.210473        -1.449359
 H         0.386515         1.215458         1.296569
 H        -0.414329         0.834749        -0.256878
 H        -0.314067        -0.382398         0.892857
 H         1.900813        -0.695190         1.888874
 H         1.565677        -1.936871         0.508876
 H         4.149392        -0.707888         2.382045
 H         5.334319        -1.214587         1.141637
 H         5.529110         1.032364         0.940830
 H         4.293789         1.974169        -0.799843
 H         1.954928         2.002670        -1.040536
