19
Iteration:  4382
 C        -0.045417         0.162873         0.133180
 C         1.481288         0.103760         0.071823
 C         2.112412        -0.853127         1.074231
 O         3.301978        -1.620294         0.918495
 C         4.491789        -0.805418         1.230990
 C         4.705077         0.431342         0.461984
 C         3.917552         1.172873        -0.321057
 C         2.401087         1.118474        -0.484416
 O         1.958202         0.154056        -1.422099
 H        -0.391268        -0.649356         0.889571
 H        -0.523927         1.036951         0.575694
 H        -0.550871        -0.094135        -0.858568
 H         1.994115        -0.393382         2.118551
 H         1.366611        -1.684808         1.199972
 H         4.591880        -0.541061         2.328640
 H         5.445231        -1.431908         1.184252
 H         5.714829         0.713296         0.260159
 H         4.350213         1.962265        -0.879067
 H         2.020559         2.056098        -0.727091
