19
Iteration:  3527charge 0 multiplicity 1
 C         0.086847         0.380878         0.313725
 C         1.521427         0.133926         0.101639
 C         2.062411        -0.978922         1.091736
 O         3.373613        -1.390566         0.644054
 C         4.387422        -0.704202         1.311871
 C         4.725096         0.555450         0.481422
 C         3.932799         1.184753        -0.383385
 C         2.479496         0.925615        -0.703745
 O         1.789720        -0.280242        -1.254897
 H        -0.155459         1.328437        -0.163659
 H        -0.488898        -0.328709        -0.116177
 H        -0.146802         0.275599         1.386148
 H         2.102869        -0.555776         2.164811
 H         1.472362        -1.872386         1.080294
 H         3.956758        -0.417051         2.403348
 H         5.208940        -1.455844         1.683905
 H         5.545803         1.163242         0.685990
 H         4.358822         2.133437        -0.768939
 H         2.130810         1.963577        -1.115792
