19
Iteration:  4897
 C         0.136211         0.508476         0.460710
 C         1.536602         0.041778        -0.043740
 C         2.033860        -1.103614         0.903128
 O         3.438889        -1.548574         0.684262
 C         4.366424        -0.709254         1.358566
 C         4.591996         0.628830         0.716023
 C         3.907904         1.269805        -0.299326
 C         2.532182         0.973410        -0.701155
 O         1.800173        -0.220621        -1.454860
 H         0.269630         1.474366         1.057496
 H        -0.696733         0.757374        -0.261183
 H        -0.315905        -0.219301         1.110273
 H         2.009745        -0.634899         1.824214
 H         1.436938        -2.063693         0.821878
 H         4.084604        -0.554719         2.426579
 H         5.185353        -1.407929         1.342674
 H         5.461224         1.117806         1.140860
 H         4.325429         2.239735        -0.583796
 H         2.099090         1.753723        -1.259331
