19
Iteration:   918charge 0 multiplicity 1
 C         0.041679         0.584058         0.112415
 C         1.466222        -0.005552         0.132757
 C         1.920915        -0.993492         1.187151
 O         3.339329        -1.429524         1.083091
 C         4.449411        -0.555218         1.255568
 C         4.763037         0.609122         0.208279
 C         3.799476         1.230775        -0.633225
 C         2.405337         0.841655        -0.724792
 O         2.058526        -0.470751        -1.053612
 H        -0.028792         1.323779         1.014997
 H         0.021056         1.042913        -0.836741
 H        -0.860575        -0.103891         0.257458
 H         1.779348        -0.507602         2.177459
 H         1.270645        -1.867494         1.131930
 H         4.406588        -0.007843         2.285045
 H         5.471903        -1.143024         1.375400
 H         5.883364         0.881504         0.241649
 H         4.427567         2.057068        -1.135057
 H         2.055171         1.653266        -1.391594
