19
Iteration:  2482charge 0 multiplicity 1
 C        -0.022389         0.462894         0.059493
 C         1.474906         0.069414         0.131910
 C         2.087631        -0.758140         1.323689
 O         3.277144        -1.404019         0.890843
 C         4.529036        -0.678978         1.064777
 C         4.736442         0.542076         0.372591
 C         3.789431         1.227403        -0.337132
 C         2.417823         0.914471        -0.697213
 O         2.011626        -0.487091        -1.144722
 H        -0.377141         0.073829        -1.059689
 H        -0.553511        -0.208401         0.801675
 H        -0.135619         1.474452         0.281646
 H         2.156556        -0.306411         2.309242
 H         1.352217        -1.604014         1.386304
 H         4.552872        -0.442606         2.246522
 H         5.296531        -1.474308         0.884856
 H         5.723700         0.885024         0.244519
 H         4.182909         2.162950        -0.723009
 H         1.971669         1.814858        -1.281333
