19
Iteration:   764charge 0 multiplicity 1
 C         0.087516         0.438274         0.171761
 C         1.530198         0.071204         0.171851
 C         2.011558        -0.918359         1.181380
 O         3.319683        -1.365042         0.899484
 C         4.334553        -0.444145         1.340044
 C         4.797526         0.571845         0.330542
 C         3.934583         1.076686        -0.559889
 C         2.443160         0.868373        -0.753984
 O         1.914312        -0.451925        -1.151137
 H        -0.039485         1.210478         0.948011
 H        -0.362286         0.855211        -0.733390
 H        -0.583788        -0.341697         0.542874
 H         1.941112        -0.584837         2.261757
 H         1.303755        -1.758803         1.100675
 H         4.034116         0.058106         2.282277
 H         5.229792        -1.131245         1.589944
 H         5.852183         0.830306         0.237921
 H         4.201619         1.789009        -1.422349
 H         1.958674         1.645458        -1.318462
