19
Iteration:  3053charge 0 multiplicity 1
 C         0.167812         0.419253         0.392366
 C         1.552666         0.024326         0.045885
 C         2.013267        -1.084704         0.965390
 O         3.368210        -1.556782         0.837572
 C         4.358057        -0.602744         1.322706
 C         4.707460         0.599091         0.501013
 C         3.921552         1.176439        -0.432476
 C         2.471592         1.022166        -0.633686
 O         1.816240        -0.136304        -1.350091
 H        -0.414036         0.763519        -0.564740
 H        -0.445887        -0.551368         0.651730
 H         0.063101         1.209979         1.259597
 H         1.762846        -0.666782         1.924118
 H         1.461975        -2.017787         0.767253
 H         3.988993        -0.259171         2.431840
 H         5.191593        -1.268718         1.397259
 H         5.717473         0.877105         0.533005
 H         4.404755         2.018271        -1.026122
 H         1.956034         1.811856        -1.074311
