19
Iteration:  2798
 C         0.057844         0.292471         0.157237
 C         1.545764         0.082479         0.024932
 C         2.012193        -0.966112         1.120027
 O         3.351046        -1.609532         1.065658
 C         4.462666        -0.777638         1.237955
 C         4.704416         0.466769         0.285070
 C         3.892620         1.275163        -0.368348
 C         2.324419         1.098100        -0.537031
 O         1.955713        -0.041962        -1.356066
 H        -0.488922         0.480981        -0.845194
 H        -0.480730        -0.634221         0.577504
 H        -0.034344         1.206892         0.850858
 H         1.983350        -0.378278         2.069675
 H         1.357794        -1.868024         1.080499
 H         4.560809        -0.143702         2.215242
 H         5.330936        -1.352615         1.185646
 H         5.790723         0.742352         0.199288
 H         4.163669         2.224352        -0.838604
 H         1.855773         1.963196        -0.844930
