19
Iteration:  2548charge 0 multiplicity 1
 C         0.122883         0.377000         0.336776
 C         1.541800        -0.002082        -0.049177
 C         2.068392        -0.822908         1.140011
 O         3.285592        -1.437061         0.968023
 C         4.534775        -0.696497         1.314874
 C         4.630215         0.541769         0.462718
 C         3.813204         1.173607        -0.454028
 C         2.437040         0.967659        -0.836279
 O         1.914941        -0.323495        -1.335221
 H        -0.574497        -0.406454         0.664857
 H         0.262968         0.941133         1.247351
 H        -0.342393         0.986233        -0.331967
 H         1.892082        -0.214550         2.027195
 H         1.259503        -1.588273         1.137197
 H         4.532992        -0.312004         2.301176
 H         5.439999        -1.281667         1.104054
 H         5.507901         1.053006         0.686478
 H         4.202964         2.182929        -0.669475
 H         1.775493         1.809619        -1.239031
