19
Iteration:  3903charge 0 multiplicity 1
 C         0.060632         0.490670         0.291691
 C         1.456826         0.052825         0.054300
 C         2.072587        -0.892289         1.126932
 O         3.356687        -1.369251         0.643120
 C         4.544666        -0.738179         1.207623
 C         4.679017         0.636722         0.664720
 C         3.810512         1.143405        -0.296812
 C         2.453205         0.833951        -0.763086
 O         1.865428        -0.356138        -1.284504
 H        -0.158275         1.320749        -0.459117
 H        -0.687473        -0.301104         0.164716
 H         0.055746         0.844370         1.315502
 H         2.192842        -0.314416         1.992773
 H         1.399533        -1.635137         1.252684
 H         4.475159        -0.750296         2.393303
 H         5.409089        -1.442228         1.013319
 H         5.517090         1.195401         0.987974
 H         4.166738         2.151086        -0.537576
 H         2.088422         1.679669        -1.258049
