19
Iteration:  1328
 C         0.183301         0.589655         0.179615
 C         1.517902        -0.084127         0.122264
 C         1.959755        -1.105950         1.221487
 O         3.299406        -1.419208         1.098276
 C         4.388378        -0.348642         1.404416
 C         4.685085         0.554908         0.206022
 C         3.875607         1.124157        -0.678453
 C         2.437530         0.849225        -0.693991
 O         1.966831        -0.377245        -1.253428
 H        -0.180792         0.931099         1.143832
 H         0.265571         1.455808        -0.419958
 H        -0.745187        -0.114781         0.012696
 H         1.799308        -0.697341         2.325740
 H         1.543324        -2.052712         1.030311
 H         4.092537         0.377346         2.279847
 H         5.298352        -0.989318         1.677070
 H         5.789406         0.739452        -0.012054
 H         4.238537         1.947190        -1.407411
 H         2.013587         1.658315        -1.238564
