19
Iteration:  4995charge 0 multiplicity 1
 C        -0.018071         0.171260         0.092003
 C         1.488610         0.053272         0.188785
 C         1.981185        -1.133914         1.024564
 O         3.274519        -1.373788         0.828725
 C         4.430749        -0.661646         1.258651
 C         4.768665         0.324999         0.220970
 C         3.868811         1.209814        -0.319996
 C         2.451112         1.167246        -0.448129
 O         2.073524         0.058557        -1.187441
 H        -0.607254         0.211411         1.006309
 H        -0.107976         1.206499        -0.317664
 H        -0.494432        -0.476804        -0.538635
 H         1.879551        -0.718608         2.151403
 H         1.521839        -2.255305         0.972026
 H         4.079493        -0.214664         2.244542
 H         5.120000        -1.421780         1.535107
 H         5.905058         0.479609         0.142531
 H         4.434379         1.993737        -0.870140
 H         1.996997         2.153064        -0.747153
