19
Iteration:  1458charge 0 multiplicity 1
 C         0.111218         0.418408         0.132249
 C         1.579212         0.028387         0.114897
 C         2.017505        -0.788569         1.287830
 O         3.207306        -1.447770         1.088141
 C         4.336290        -0.635601         1.153975
 C         4.661523         0.527005         0.155710
 C         3.816805         1.258166        -0.579281
 C         2.435749         0.985572        -0.712729
 O         2.136530        -0.484908        -1.046683
 H        -0.104493         1.298683         0.774440
 H        -0.171749         0.634971        -0.877847
 H        -0.588333        -0.490944         0.277807
 H         1.968330        -0.257146         2.236583
 H         1.309214        -1.628061         1.428082
 H         4.282640        -0.051534         2.096895
 H         5.366531        -1.242912         1.207885
 H         5.683893         0.914826         0.295338
 H         4.210606         2.148831        -1.199840
 H         1.989819         1.538962        -1.481731
