19
Iteration:  3787
 C        -0.044687         0.202086         0.040167
 C         1.464757         0.065275         0.156736
 C         2.025239        -0.950211         1.203194
 O         3.268243        -1.431700         0.833104
 C         4.440587        -0.634203         1.212890
 C         4.888961         0.454412         0.234976
 C         3.940194         1.152659        -0.424171
 C         2.494262         1.058403        -0.460189
 O         1.884326        -0.055357        -1.154874
 H        -0.286973         0.636311        -0.951938
 H        -0.355158        -0.991946         0.084302
 H        -0.568681         0.673449         0.910199
 H         2.029750        -0.484327         2.161900
 H         1.335701        -1.866846         1.238252
 H         4.474863        -0.231584         2.289331
 H         5.221431        -1.339927         1.357333
 H         5.906193         0.660699         0.102948
 H         4.284795         2.039196        -0.993823
 H         1.949528         1.999150        -0.572152
