19
Iteration:  1260
 C         0.018054         0.157477         0.383836
 C         1.542587         0.061666        -0.006728
 C         2.034594        -0.752249         1.089264
 O         3.260280        -1.286253         1.035282
 C         4.338046        -0.459242         1.474495
 C         4.818658         0.499211         0.353841
 C         3.973597         0.883768        -0.679095
 C         2.535928         0.933581        -0.684887
 O         1.852776        -0.208024        -1.399832
 H        -0.161485         0.562680         1.421635
 H        -0.581486         0.824290        -0.333241
 H        -0.388487        -0.847925         0.584725
 H         1.914887        -0.216324         2.133366
 H         1.379388        -1.572607         1.259791
 H         3.868284         0.179024         2.294965
 H         5.355453        -1.004915         1.666836
 H         5.935682         0.483593         0.241622
 H         4.501751         1.311544        -1.437162
 H         2.173206         1.777922        -1.135375
