19
Iteration:  1236
 C         0.008842         0.325949         0.260771
 C         1.455932         0.022974         0.003533
 C         2.088623        -0.838539         1.189418
 O         3.368061        -1.371940         1.048024
 C         4.415165        -0.461309         1.463683
 C         4.792720         0.478958         0.359434
 C         3.976262         0.940719        -0.616301
 C         2.419752         0.913576        -0.755108
 O         1.813400        -0.233658        -1.400013
 H        -0.112202         0.938981         1.196359
 H        -0.471385         0.901119        -0.567379
 H        -0.491070        -0.561988         0.523261
 H         2.084388        -0.202752         2.149674
 H         1.437403        -1.692961         1.491192
 H         4.045596         0.127228         2.348678
 H         5.379915        -1.028316         1.638617
 H         5.800465         0.798936         0.536384
 H         4.466544         1.546764        -1.287427
 H         2.013003         1.744783        -1.230137
