19
Iteration:  1935charge 0 multiplicity 1
 C         0.107440         0.469676         0.195278
 C         1.549279         0.022867         0.022977
 C         2.096955        -0.674678         1.259146
 O         3.314327        -1.456867         1.075133
 C         4.456206        -0.647587         1.223883
 C         4.639879         0.595946         0.382317
 C         3.788929         1.195475        -0.444302
 C         2.458821         0.787625        -0.861618
 O         1.876283        -0.514622        -1.302602
 H         0.204078         1.314502         1.043487
 H        -0.143951         0.978775        -0.749975
 H        -0.598281        -0.269390         0.323600
 H         2.255045        -0.049737         2.172524
 H         1.486973        -1.441825         1.615611
 H         4.891493        -0.314111         2.244497
 H         5.340686        -1.303438         0.859335
 H         5.290374         1.324546         0.836068
 H         4.010993         2.239434        -0.577348
 H         1.982458         1.527801        -1.422853
