19
Iteration:  2107
 C         0.083519         0.602583         0.231154
 C         1.509671         0.007092         0.114447
 C         2.001356        -0.965114         1.188295
 O         3.370499        -1.366962         0.794383
 C         4.348064        -0.433520         1.381487
 C         4.678633         0.607749         0.356565
 C         3.893533         1.092842        -0.581014
 C         2.413025         0.812438        -0.686640
 O         1.983974        -0.518697        -1.157472
 H         0.152555         1.293465         1.035574
 H         0.080923         1.280832        -0.596630
 H        -0.743165        -0.161683         0.306748
 H         1.956663        -0.681159         2.216012
 H         1.398948        -1.892760         1.061634
 H         4.211416        -0.175582         2.405408
 H         5.255022        -0.946131         1.350856
 H         5.697419         0.792179         0.412190
 H         4.336648         1.739399        -1.311113
 H         1.794623         1.696495        -1.083347
