19
Iteration:   503
 C        -0.013532         0.461013         0.162205
 C         1.461959        -0.018113         0.097036
 C         2.026768        -0.807371         1.252738
 O         3.358641        -1.316834         0.824360
 C         4.474928        -0.554085         1.349848
 C         4.850843         0.571201         0.351386
 C         3.948837         1.101004        -0.531367
 C         2.473136         0.842178        -0.657454
 O         1.776744        -0.465653        -1.194590
 H        -0.061138         1.365708         0.716390
 H        -0.178319         0.538065        -0.990164
 H        -0.669963        -0.267776         0.564744
 H         2.000056        -0.239150         2.162380
 H         1.405288        -1.770722         1.402143
 H         4.243705        -0.036878         2.377200
 H         5.269121        -1.241778         1.502827
 H         5.863065         1.083787         0.379370
 H         4.233445         1.768141        -1.197683
 H         1.996581         1.636154        -1.245985
