19
Iteration:  2173charge 0 multiplicity 1
 C         0.192786         0.399504         0.382935
 C         1.553346         0.040069         0.018893
 C         2.046349        -0.924844         1.025668
 O         3.399382        -1.464508         1.209664
 C         4.388665        -0.419685         1.484870
 C         4.618047         0.550161         0.341326
 C         3.875258         0.983785        -0.679608
 C         2.358106         0.950668        -0.813641
 O         1.881786        -0.293128        -1.405578
 H         0.288095         1.196201         1.143401
 H        -0.436443         0.990433        -0.281678
 H        -0.445120        -0.536232         0.924652
 H         1.613291        -0.591222         2.023472
 H         1.415063        -1.809422         0.732549
 H         4.199731        -0.002591         2.478106
 H         5.313432        -0.920558         1.559817
 H         5.659068         0.813998         0.193550
 H         4.417703         1.518377        -1.475600
 H         2.031548         1.974774        -1.248833
