19
Iteration:  1993charge 0 multiplicity 1
 C         0.024561         0.251445         0.060234
 C         1.500376         0.110888         0.100262
 C         2.047873        -0.704585         1.368096
 O         3.227246        -1.354398         1.072646
 C         4.418955        -0.675466         1.133153
 C         4.778248         0.495226         0.202802
 C         3.889734         1.227191        -0.507167
 C         2.481260         0.892229        -0.711095
 O         1.971830        -0.388262        -1.159893
 H        -0.478704         0.507541         1.014168
 H        -0.268708         1.037410        -0.676929
 H        -0.469205        -0.834102        -0.038847
 H         2.263658        -0.109481         2.273823
 H         1.297501        -1.495178         1.568976
 H         4.371886        -0.156844         2.222131
 H         5.187017        -1.528674         1.201219
 H         5.888530         0.871862         0.260606
 H         4.222805         2.187319        -0.934586
 H         2.052386         1.710368        -1.205682
