19
Iteration:    22
 C         0.057499         0.509390         0.165561
 C         1.537423         0.116891         0.104458
 C         1.973508        -0.889325         1.171294
 O         3.324235        -1.407873         1.144913
 C         4.521492        -0.645375         1.180886
 C         4.643071         0.588508         0.263124
 C         3.807833         1.241331        -0.526762
 C         2.397430         0.950579        -0.765482
 O         2.036664        -0.530058        -1.085683
 H        -0.163616         1.273166         0.937754
 H        -0.247641         0.952902        -0.759908
 H        -0.630558        -0.332435         0.387359
 H         1.611829        -0.719715         2.273355
 H         1.337135        -1.733106         0.829709
 H         4.878265        -0.473232         2.217005
 H         5.232345        -1.278821         0.784056
 H         5.704732         0.816442         0.123736
 H         4.289668         1.870087        -1.293645
 H         1.902323         1.636781        -1.505627
