19
Iteration:  1353charge 0 multiplicity 1
 C         0.079538         0.462916         0.324039
 C         1.556587         0.060230         0.021405
 C         2.042197        -0.887972         1.070206
 O         3.325613        -1.377626         1.028301
 C         4.348498        -0.446891         1.417136
 C         4.726635         0.579104         0.327332
 C         3.945767         1.021910        -0.589165
 C         2.493604         0.856546        -0.787707
 O         1.863390        -0.454379        -1.254948
 H        -0.064705         0.851427         1.325486
 H        -0.428529         1.191055        -0.317793
 H        -0.482436        -0.465646         0.522513
 H         1.956078        -0.352294         2.033156
 H         1.452092        -1.851328         1.074213
 H         3.914928         0.265005         2.238266
 H         5.149228        -0.974419         1.779721
 H         5.735064         0.955207         0.402032
 H         4.345066         1.650061        -1.423823
 H         2.032781         1.756496        -1.368212
