19
Iteration:  3373charge 0 multiplicity 1
 C        -0.072613         0.282932         0.201849
 C         1.521656         0.108253         0.084876
 C         2.054222        -0.906262         1.110347
 O         3.372714        -1.509901         0.898132
 C         4.490258        -0.796912         1.161550
 C         4.735829         0.477125         0.342387
 C         3.815728         1.257989        -0.318322
 C         2.454200         1.090636        -0.571864
 O         1.959487        -0.168764        -1.282825
 H        -0.571129         0.319396        -0.809885
 H        -0.560397        -0.557426         0.769697
 H        -0.413611         1.325263         0.589562
 H         2.055706        -0.432857         2.110413
 H         1.372575        -1.718053         1.148435
 H         4.517211        -0.459272         2.271093
 H         5.254738        -1.487209         0.993100
 H         5.788445         0.891688         0.554032
 H         4.229056         2.179837        -0.770518
 H         1.970261         2.104068        -0.793460
