19
Iteration:  1723
 C         0.172419         0.682155         0.247359
 C         1.520732        -0.066884         0.104644
 C         2.032271        -1.107518         1.162220
 O         3.460989        -1.433447         0.978340
 C         4.238743        -0.380472         1.439905
 C         4.787890         0.571179         0.199954
 C         3.874001         1.157030        -0.583137
 C         2.467471         0.744982        -0.723054
 O         1.832863        -0.388733        -1.216054
 H        -0.038818         1.325954         1.073158
 H        -0.208447         1.205935        -0.676834
 H        -0.649271        -0.141868         0.169016
 H         1.746112        -0.720311         2.159636
 H         1.458499        -2.062476         0.910873
 H         3.704591         0.235279         2.170066
 H         5.047488        -0.747600         2.043659
 H         5.941115         0.783929         0.182664
 H         4.129516         1.858257        -1.302708
 H         1.997740         1.673179        -1.058609
