19
Iteration:    60
 C         0.123102         0.439182         0.144442
 C         1.558070        -0.079647        -0.000227
 C         2.063885        -0.739503         1.316942
 O         3.277760        -1.447277         1.171050
 C         4.452863        -0.671802         1.121145
 C         4.656763         0.564167         0.268304
 C         3.794100         1.302271        -0.430169
 C         2.420442         0.921750        -0.661494
 O         1.947565        -0.458178        -1.296441
 H         0.183935         1.428281         0.643670
 H        -0.235165         0.618094        -0.963311
 H        -0.573753        -0.238913         0.659481
 H         2.035438         0.035264         2.074111
 H         1.316670        -1.492459         1.654192
 H         4.788727        -0.386378         2.125263
 H         5.249097        -1.480900         0.711008
 H         5.741519         0.846789         0.296554
 H         4.183752         2.153316        -1.068424
 H         1.815637         1.629076        -1.184654
