19
Iteration:  4969
 C         0.016512         0.406146         0.145437
 C         1.503542         0.067846         0.101698
 C         2.011081        -1.103261         0.963161
 O         3.316846        -1.582511         0.758791
 C         4.391930        -0.616818         1.279210
 C         4.815847         0.559696         0.354003
 C         3.867369         1.278611        -0.292345
 C         2.470609         1.072308        -0.336164
 O         1.965608        -0.183085        -1.253253
 H        -0.362813         0.605478         1.150144
 H        -0.178940         1.248243        -0.469132
 H        -0.559252        -0.445927        -0.354418
 H         1.986811        -0.708790         2.042216
 H         1.428699        -1.978875         0.861370
 H         3.943898        -0.356891         2.295578
 H         5.233501        -1.336959         1.429527
 H         5.841958         0.725667         0.245271
 H         4.189699         1.963839        -1.058804
 H         1.984139         2.033004        -0.769860
