19
Iteration:  2474charge 0 multiplicity 1
 C        -0.006559         0.398038         0.051392
 C         1.444746         0.045056         0.082914
 C         2.050070        -0.774604         1.342278
 O         3.297179        -1.451969         0.951809
 C         4.472889        -0.705139         1.118664
 C         4.736301         0.540410         0.260538
 C         3.853825         1.320154        -0.320962
 C         2.446772         0.939976        -0.689226
 O         2.006466        -0.463976        -1.151062
 H        -0.589809         0.450575        -0.997356
 H        -0.543748        -0.270522         0.758680
 H        -0.108149         1.423635         0.465582
 H         2.144164        -0.186935         2.278188
 H         1.262222        -1.522951         1.501472
 H         4.767615        -0.437574         2.145794
 H         5.211206        -1.329011         0.719566
 H         5.726912         0.916276         0.328606
 H         4.315120         2.218396        -0.815429
 H         1.925326         1.689429        -1.297366
