19
Iteration:  2515
 C        -0.023835         0.439487         0.175537
 C         1.518354         0.026096         0.036753
 C         2.148894        -0.756963         1.278255
 O         3.297966        -1.410826         0.777443
 C         4.513010        -0.683213         1.183300
 C         4.651242         0.620347         0.544736
 C         3.915817         1.162764        -0.424036
 C         2.444279         0.888067        -0.741049
 O         1.867442        -0.448228        -1.210931
 H        -0.729805        -0.171815        -0.491288
 H        -0.321364         0.368237         1.233143
 H        -0.200465         1.426941        -0.104343
 H         2.373891        -0.131748         2.143434
 H         1.528999        -1.607610         1.635948
 H         4.426550        -0.594682         2.329066
 H         5.408025        -1.322757         1.038418
 H         5.607930         1.009697         0.720253
 H         4.235874         2.106494        -0.865990
 H         1.953146         1.767518        -1.310117
