19
Iteration:  1417
 C        -0.004289         0.521220         0.147658
 C         1.484227        -0.032800         0.018267
 C         2.071727        -0.906908         1.235766
 O         3.344996        -1.385825         1.132232
 C         4.492679        -0.531010         1.291881
 C         4.737888         0.551716         0.333316
 C         3.908634         1.140706        -0.554183
 C         2.375003         0.861493        -0.745787
 O         1.902754        -0.409499        -1.270220
 H         0.116593         1.500175         0.580852
 H        -0.395237         0.565357        -0.863551
 H        -0.618293        -0.163542         0.822622
 H         1.986869        -0.172850         2.113795
 H         1.388200        -1.706737         1.325184
 H         4.497987        -0.165304         2.320323
 H         5.251626        -1.340546         1.359277
 H         5.764201         0.893184         0.335882
 H         4.340661         1.816148        -1.308094
 H         1.857294         1.711067        -1.156834
