19
Iteration:  4764charge 0 multiplicity 1
 C         0.038208         0.302045         0.183621
 C         1.497443         0.039581        -0.021134
 C         2.055710        -0.935796         1.024202
 O         3.357072        -1.536294         0.882806
 C         4.446871        -0.816730         1.300901
 C         4.712821         0.468100         0.435169
 C         3.905253         1.278863        -0.249358
 C         2.432487         1.105273        -0.514069
 O         1.865685        -0.048008        -1.387086
 H        -0.278514        -0.429230         1.007578
 H        -0.066206         1.329342         0.409328
 H        -0.439581         0.037319        -0.816084
 H         1.931589        -0.621306         2.111783
 H         1.374431        -1.877127         1.045579
 H         4.422117        -0.359753         2.331691
 H         5.303894        -1.486423         1.421535
 H         5.782034         0.770779         0.381979
 H         4.285377         2.149604        -0.792916
 H         1.998302         2.017416        -0.909398
