19
Iteration:  2865charge 0 multiplicity 1
 C        -0.016809         0.348135         0.108533
 C         1.437968         0.061987         0.097115
 C         2.080864        -0.807599         1.242293
 O         3.303318        -1.440820         0.786292
 C         4.503284        -0.816123         1.048649
 C         4.692248         0.513182         0.457348
 C         3.856481         1.303172        -0.279779
 C         2.422627         0.955743        -0.653186
 O         1.997226        -0.282691        -1.179168
 H        -0.359766         0.974207        -0.833560
 H        -0.593746        -0.638830         0.129503
 H        -0.333451         0.970474         1.000879
 H         2.282920        -0.199849         2.217819
 H         1.545469        -1.778326         1.375441
 H         4.629234        -0.668535         2.262997
 H         5.285014        -1.415067         0.654242
 H         5.720019         0.986936         0.746319
 H         4.206168         2.280713        -0.431847
 H         2.033003         1.832511        -1.050363
