19
Iteration:  4211charge 0 multiplicity 1
 C         0.020230         0.334779         0.086399
 C         1.504300         0.000970         0.214143
 C         1.967412        -1.101410         1.157155
 O         3.307012        -1.567098         0.837527
 C         4.300740        -0.603386         1.213765
 C         4.713526         0.444409         0.208076
 C         3.946997         1.307030        -0.472710
 C         2.469681         1.114166        -0.472336
 O         2.090383        -0.091287        -1.115486
 H        -0.378768        -0.291723        -0.695059
 H        -0.481438         0.191491         1.021863
 H        -0.206625         1.387913        -0.325519
 H         1.864951        -0.896201         2.240858
 H         1.427560        -1.962523         0.879716
 H         3.995881        -0.099461         2.070188
 H         5.240596        -1.036843         1.528924
 H         5.894976         0.574937         0.116816
 H         4.317186         2.181364        -0.920681
 H         1.843997         1.999595        -0.639280
