19
Iteration:  3853
 C         0.121100         0.444593         0.312891
 C         1.614043        -0.050688         0.014655
 C         2.133439        -0.905680         1.161168
 O         3.299118        -1.571933         0.932475
 C         4.393942        -0.754526         1.175910
 C         4.606422         0.617049         0.454452
 C         3.806595         1.304524        -0.362572
 C         2.395574         0.964732        -0.766887
 O         1.964408        -0.221706        -1.364640
 H        -0.209508         1.067146        -0.510595
 H        -0.678131        -0.554442         0.392450
 H         0.152653         0.848623         1.360764
 H         2.182151        -0.153592         2.047828
 H         1.240325        -1.678828         1.343386
 H         4.422017        -0.651639         2.254700
 H         5.231345        -1.406537         0.906208
 H         5.543280         1.010663         0.888236
 H         4.182733         2.340881        -0.517908
 H         1.810102         1.902209        -1.096363
