19
Iteration:  1982
 C         0.006820         0.351536         0.114336
 C         1.548160         0.061998         0.167173
 C         1.982177        -0.735535         1.337285
 O         3.209947        -1.360729         0.990859
 C         4.419306        -0.655119         1.088612
 C         4.692947         0.527100         0.271630
 C         3.895888         1.217442        -0.542362
 C         2.437050         0.911368        -0.731224
 O         2.104909        -0.464582        -1.092072
 H        -0.360988         0.727383         1.071298
 H        -0.304845         1.022644        -0.728838
 H        -0.422799        -0.680782        -0.261481
 H         2.003336         0.001110         2.155293
 H         1.363898        -1.561861         1.697344
 H         4.579455        -0.144997         2.164988
 H         5.287542        -1.402724         1.047836
 H         5.800320         0.870676         0.371020
 H         4.305232         2.088200        -1.048749
 H         1.868797         1.607054        -1.267179
