19
Iteration:  1271
 C         0.057703         0.191780         0.355868
 C         1.495142         0.089221         0.021676
 C         2.011519        -0.853364         1.196563
 O         3.330080        -1.304209         1.036490
 C         4.318826        -0.374016         1.443020
 C         4.793710         0.404462         0.317090
 C         4.066305         0.946828        -0.641606
 C         2.426615         0.985190        -0.761374
 O         1.863356        -0.225005        -1.364521
 H         0.003057         0.642962         1.370370
 H        -0.510038         0.838361        -0.388363
 H        -0.387059        -0.792661         0.158911
 H         1.747325        -0.271681         2.161248
 H         1.401540        -1.734565         1.095692
 H         4.100800         0.160145         2.424494
 H         5.050003        -1.174987         1.860377
 H         5.900764         0.447447         0.174919
 H         4.458847         1.315255        -1.520597
 H         2.048113         1.836418        -1.225639
