19
Iteration:  2909
 C        -0.065905         0.403876         0.220300
 C         1.493260         0.037942         0.035244
 C         2.180382        -0.718253         1.176640
 O         3.323172        -1.389729         0.697790
 C         4.549691        -0.845931         1.149834
 C         4.624795         0.554273         0.627956
 C         3.813772         1.208216        -0.284963
 C         2.467946         0.914202        -0.742347
 O         1.929866        -0.355919        -1.265029
 H        -0.424415         1.517912        -0.071646
 H        -0.784166        -0.426447        -0.170966
 H        -0.263931         0.369464         1.361539
 H         2.681577         0.026571         1.942178
 H         1.387720        -1.405142         1.617932
 H         4.630004        -0.894833         2.247076
 H         5.248389        -1.461660         0.672230
 H         5.583678         1.111637         1.000123
 H         4.060570         2.226224        -0.416836
 H         2.009492         1.681606        -1.269213
