19
Iteration:  3790
 C        -0.055005         0.200851         0.024424
 C         1.464522         0.061110         0.162046
 C         2.015897        -0.957736         1.215620
 O         3.269649        -1.427120         0.830916
 C         4.437396        -0.634185         1.203412
 C         4.867796         0.436792         0.226844
 C         3.948152         1.160273        -0.429499
 C         2.524580         1.058013        -0.454760
 O         1.887153        -0.054438        -1.146241
 H        -0.348736         0.628819        -0.884555
 H        -0.326007        -0.895511         0.115193
 H        -0.651470         0.691287         0.818546
 H         2.001825        -0.549963         2.214391
 H         1.396593        -1.856534         1.234266
 H         4.538511        -0.232576         2.277821
 H         5.296038        -1.297217         1.396668
 H         5.989026         0.718314         0.104687
 H         4.205594         2.075862        -0.943545
 H         1.894065         2.002119        -0.624539
