19
Iteration:  3611
 C         0.092955         0.303824         0.224961
 C         1.556180         0.056538        -0.013780
 C         2.058784        -1.018089         1.080544
 O         3.381437        -1.646762         1.094222
 C         4.418397        -0.675974         1.311458
 C         4.661894         0.390026         0.238233
 C         3.828565         1.255712        -0.442792
 C         2.354447         1.203100        -0.513029
 O         1.957435         0.009964        -1.357351
 H        -0.366390         0.561692        -0.696308
 H        -0.320644        -0.831436         0.491578
 H        -0.077271         1.068320         0.994670
 H         1.741091        -0.605304         2.141568
 H         1.376856        -1.941864         0.853406
 H         4.276642        -0.231506         2.308818
 H         5.385811        -1.250632         1.229057
 H         5.721091         0.561874         0.037722
 H         4.398008         2.059198        -1.016838
 H         1.736099         2.094133        -0.718608
