19
Iteration:  2957
 C         0.144719         0.391590         0.221501
 C         1.577779        -0.002718         0.027888
 C         1.990148        -0.935993         1.200334
 O         3.277303        -1.587509         1.004269
 C         4.466950        -0.753953         1.099412
 C         4.609961         0.566798         0.356077
 C         3.841699         1.363154        -0.369867
 C         2.374782         1.121693        -0.584766
 O         2.023789        -0.264559        -1.304597
 H        -0.059291         1.212608        -0.298223
 H        -0.371678        -0.367651        -0.219861
 H        -0.195462         0.512234         1.182001
 H         1.980464        -0.385452         2.150931
 H         1.248562        -1.776317         1.162245
 H         4.615350        -0.558244         2.208758
 H         5.262133        -1.458785         0.736593
 H         5.597711         0.804337         0.598148
 H         4.279137         2.257325        -0.948957
 H         1.699215         1.856040        -1.130446
