19
Iteration:  3137
 C         0.094786         0.383908         0.436111
 C         1.513173         0.097912         0.117371
 C         2.068757        -1.098272         0.920328
 O         3.427913        -1.411973         0.699510
 C         4.242157        -0.560199         1.417561
 C         4.756878         0.585831         0.512583
 C         4.000074         1.041972        -0.463004
 C         2.494625         0.934416        -0.651661
 O         1.763377        -0.142228        -1.332537
 H        -0.360603         1.149706        -0.255273
 H        -0.425208        -0.532475         0.432625
 H         0.081890         0.765805         1.389318
 H         1.893852        -1.010742         2.096529
 H         1.506019        -2.000567         0.608913
 H         3.710306        -0.126545         2.290856
 H         5.079057        -1.163385         1.922530
 H         5.779176         0.952614         0.675578
 H         4.394836         1.760983        -1.255694
 H         2.180567         1.921950        -1.219247
