19
Iteration:  3092
 C         0.255859         0.730546         0.522835
 C         1.542315        -0.075930        -0.012665
 C         2.021569        -1.265440         0.849034
 O         3.441580        -1.627721         0.845774
 C         4.360511        -0.526726         1.384495
 C         4.585749         0.633099         0.553709
 C         3.781990         1.192493        -0.391967
 C         2.394795         0.958921        -0.762547
 O         1.902499        -0.246814        -1.391067
 H         0.024269         1.595568        -0.075518
 H        -0.598080         0.145714         0.581510
 H         0.484168         1.019518         1.472931
 H         1.797347        -0.888938         1.958412
 H         1.374818        -2.144781         0.589717
 H         4.013404        -0.257281         2.308708
 H         5.404080        -0.936203         1.512799
 H         5.579111         1.188044         0.627841
 H         4.225475         1.998114        -0.960909
 H         1.822890         1.967574        -0.977512
