19
Iteration:  2077
 C         0.062454         0.404451         0.233751
 C         1.554886         0.088200         0.061030
 C         1.975306        -0.875579         1.195426
 O         3.346936        -1.483218         1.097512
 C         4.421024        -0.509812         1.256212
 C         4.723276         0.469841         0.271270
 C         3.890637         1.199457        -0.539273
 C         2.425098         0.942294        -0.789465
 O         1.924530        -0.423316        -1.230392
 H        -0.114134         1.059336         1.206094
 H        -0.247010         1.066153        -0.621114
 H        -0.477080        -0.445758         0.157237
 H         1.868812        -0.409830         2.205321
 H         1.200045        -1.678846         1.093447
 H         4.330548         0.065977         2.299892
 H         5.395700        -1.102207         1.365985
 H         5.762437         0.897182         0.440127
 H         4.356002         2.066163        -0.983491
 H         1.895262         1.820457        -1.262680
