19
Iteration:  3146
 C         0.007404         0.373591         0.428971
 C         1.506180         0.084272         0.104916
 C         2.099739        -1.065685         0.918297
 O         3.424162        -1.426395         0.720487
 C         4.283152        -0.525733         1.437223
 C         4.789357         0.521547         0.507021
 C         3.986746         1.044038        -0.482712
 C         2.486712         0.953237        -0.618788
 O         1.792336        -0.120220        -1.329257
 H        -0.458580         0.961133        -0.314242
 H        -0.493557        -0.499429         0.390942
 H        -0.138984         0.755549         1.350975
 H         1.872680        -0.901333         1.972353
 H         1.497310        -1.914781         0.482361
 H         3.593539        -0.148855         2.306603
 H         5.250707        -1.075804         1.830460
 H         5.909939         0.775122         0.449293
 H         4.475513         1.658857        -1.270361
 H         2.064188         1.990040        -0.964498
