19
Iteration:  2104charge 0 multiplicity 1
 C         0.074511         0.604153         0.224283
 C         1.515432        -0.001345         0.125159
 C         2.012677        -0.961052         1.179953
 O         3.367159        -1.369029         0.819554
 C         4.342503        -0.455405         1.388742
 C         4.681361         0.605825         0.341198
 C         3.878785         1.104787        -0.585078
 C         2.403094         0.808393        -0.699276
 O         2.003727        -0.494847        -1.147812
 H         0.159589         1.279487         1.034776
 H        -0.006571         1.344214        -0.590917
 H        -0.800861        -0.253216         0.288983
 H         1.968831        -0.706753         2.293330
 H         1.344198        -1.818615         0.975984
 H         4.211839        -0.205517         2.419311
 H         5.296822        -1.025629         1.338187
 H         5.754685         0.828016         0.319394
 H         4.323552         1.778644        -1.341061
 H         1.860063         1.601680        -1.144220
