19
Iteration:  4746
 C         0.036535         0.412738         0.242116
 C         1.528688         0.055750         0.038706
 C         1.988381        -1.052720         1.007626
 O         3.286587        -1.491225         0.754554
 C         4.450212        -0.653276         1.233671
 C         4.802901         0.556521         0.531531
 C         3.914810         1.231645        -0.201078
 C         2.442645         0.978260        -0.591434
 O         1.922988        -0.195599        -1.337644
 H        -0.544365        -0.361580         0.681527
 H        -0.005518         1.441504         0.700898
 H        -0.515199         0.530226        -0.658225
 H         1.863747        -0.549142         1.985120
 H         1.348241        -1.858806         1.096745
 H         4.284484        -0.617186         2.305690
 H         5.191654        -1.444203         0.985291
 H         5.761644         0.930513         0.613367
 H         4.277332         2.154271        -0.651465
 H         1.962466         1.888760        -0.830007
