19
Iteration:  3431
 C        -0.003637         0.255277         0.227760
 C         1.511455         0.075006         0.070852
 C         1.996693        -0.900418         1.168717
 O         3.312662        -1.471477         0.783755
 C         4.412298        -0.741725         1.163575
 C         4.774763         0.469707         0.339372
 C         3.822129         1.186760        -0.372500
 C         2.384390         1.105121        -0.546322
 O         2.089598        -0.130835        -1.185958
 H        -0.304535         0.451749        -0.935559
 H        -0.547963        -0.685038         0.508642
 H        -0.284061         1.046009         1.044058
 H         2.104708        -0.362780         2.076628
 H         1.324559        -1.718637         1.292214
 H         4.346198        -0.458750         2.254716
 H         5.229890        -1.410644         1.194340
 H         5.792145         0.761253         0.238544
 H         4.140740         2.142730        -0.865640
 H         1.934875         1.950588        -0.951700
