19
Iteration:  4557
 C         0.041624         0.379181         0.251127
 C         1.564617         0.025118         0.048533
 C         2.056194        -1.057324         0.981269
 O         3.400425        -1.566558         0.950353
 C         4.339118        -0.648205         1.344194
 C         4.728262         0.540160         0.394983
 C         3.928149         1.215050        -0.394102
 C         2.450290         1.011437        -0.560968
 O         1.855812        -0.071651        -1.371985
 H        -0.735728        -0.292618        -0.311205
 H        -0.218545         0.497048         1.325762
 H        -0.244547         1.464291        -0.097403
 H         1.772548        -0.771660         2.065887
 H         1.479642        -1.942737         0.836749
 H         3.911312        -0.199653         2.238623
 H         5.336904        -1.244720         1.555566
 H         5.866099         0.588639         0.254157
 H         4.301272         2.029795        -1.070176
 H         2.081147         1.970974        -0.795124
