19
Iteration:  4580charge 0 multiplicity 1
 C         0.092476         0.330578         0.172611
 C         1.567747        -0.005589         0.114651
 C         1.886671        -1.112833         1.046338
 O         3.351625        -1.473886         0.871680
 C         4.348020        -0.521276         1.297531
 C         4.722011         0.375376         0.178499
 C         3.879609         1.196189        -0.393025
 C         2.366830         1.131140        -0.424839
 O         2.114702        -0.103836        -1.193577
 H        -0.527118        -0.103886        -0.722292
 H        -0.487050         0.224985         1.140936
 H        -0.138106         1.457556         0.028863
 H         1.574951        -0.949333         2.151717
 H         1.325625        -2.001487         0.795855
 H         4.012237        -0.032010         2.200255
 H         5.292975        -1.221777         1.455461
 H         5.811037         0.631532         0.129702
 H         4.344306         1.924238        -1.154645
 H         1.924539         2.065331        -0.733067
