19
Iteration:   342
 C         0.097624         0.414182         0.338049
 C         1.515995         0.017800        -0.010586
 C         2.096590        -0.847963         1.192717
 O         3.369176        -1.478368         1.105675
 C         4.360792        -0.490304         1.379296
 C         4.690337         0.601686         0.317403
 C         3.873553         1.035168        -0.699663
 C         2.425000         0.957232        -0.717381
 O         1.906769        -0.367644        -1.324798
 H         0.076785         0.869433         1.316534
 H        -0.519882         1.112613        -0.333557
 H        -0.570174        -0.409352         0.445349
 H         2.088508        -0.170801         2.070142
 H         1.389145        -1.584402         1.457214
 H         4.046910         0.055921         2.338914
 H         5.320511        -1.078367         1.648735
 H         5.745224         0.617197        -0.015052
 H         4.283511         1.634488        -1.647202
 H         1.953031         1.701211        -1.332619
