19
Iteration:  1947charge 0 multiplicity 1
 C         0.111143         0.544881         0.182062
 C         1.532332         0.010343         0.045695
 C         2.069796        -0.746353         1.296222
 O         3.290190        -1.460466         1.054472
 C         4.509325        -0.640729         1.138769
 C         4.589523         0.602567         0.401199
 C         3.791465         1.264818        -0.463497
 C         2.390998         0.815506        -0.871321
 O         2.022683        -0.559896        -1.203008
 H        -0.220995         1.152773         1.103574
 H        -0.160390         1.140164        -0.715962
 H        -0.561834        -0.298157         0.242155
 H         2.163520         0.042019         2.077008
 H         1.270136        -1.385710         1.527636
 H         4.507182        -0.417998         2.273142
 H         5.362091        -1.359417         0.868113
 H         5.619652         0.998686         0.622414
 H         4.109658         2.168658        -0.900028
 H         1.916621         1.529344        -1.427498
