19
Iteration:   947
 C         0.167325         0.421990         0.228059
 C         1.617835         0.065937         0.116212
 C         2.039845        -0.768401         1.260102
 O         3.253224        -1.436686         1.011614
 C         4.356237        -0.608082         1.248642
 C         4.555766         0.617262         0.314268
 C         3.867131         1.223564        -0.552312
 C         2.453044         0.846852        -0.827084
 O         2.001316        -0.504063        -1.205678
 H         0.042838         1.309288         0.892022
 H        -0.217061         0.673324        -0.803556
 H        -0.367744        -0.471901         0.614990
 H         2.193018        -0.136688         2.171885
 H         1.227416        -1.498981         1.328309
 H         4.198085        -0.247919         2.265495
 H         5.244918        -1.258872         1.231782
 H         5.577655         0.852398         0.480462
 H         4.355762         2.033683        -1.101517
 H         1.930721         1.670880        -1.386797
