19
Iteration:  1464
 C         0.040637         0.388344         0.145125
 C         1.563938         0.045063         0.090372
 C         1.975566        -0.760200         1.375958
 O         3.245609        -1.460514         1.052625
 C         4.351119        -0.625277         1.166031
 C         4.668625         0.502499         0.204238
 C         3.855766         1.300402        -0.613738
 C         2.432309         0.953106        -0.719827
 O         2.144638        -0.480990        -1.097626
 H        -0.073950         1.166862         0.913150
 H        -0.110199         0.691522        -0.932046
 H        -0.432961        -0.535620         0.317699
 H         2.078644        -0.111768         2.297786
 H         1.156513        -1.518813         1.478887
 H         4.372539        -0.226526         2.227772
 H         5.162315        -1.268642         1.212544
 H         5.716447         0.856364         0.197293
 H         4.182140         2.101953        -1.228204
 H         1.996481         1.724489        -1.492908
