19
Iteration:  1392
 C         0.061000         0.390544         0.316387
 C         1.507149         0.044013        -0.032439
 C         2.099340        -0.762921         1.193468
 O         3.351185        -1.331492         1.000248
 C         4.489711        -0.495240         1.438822
 C         4.680221         0.570042         0.439453
 C         3.918326         0.906878        -0.567171
 C         2.458710         0.811220        -0.779293
 O         1.776475        -0.336481        -1.402100
 H        -0.007364         1.328473         0.904893
 H        -0.401006         0.398003        -0.669388
 H        -0.355785        -0.546565         0.813390
 H         2.075051         0.024725         1.989919
 H         1.308375        -1.514506         1.377335
 H         4.300906        -0.184138         2.438868
 H         5.279153        -1.358104         1.681890
 H         5.660370         1.123614         0.440741
 H         4.350746         1.639411        -1.352607
 H         2.115090         1.671359        -1.271188
