19
Iteration:  2297charge 0 multiplicity 1
 C         0.149409         0.466093         0.398741
 C         1.578972        -0.059604        -0.038678
 C         2.087737        -0.913929         1.124655
 O         3.373456        -1.389590         1.128790
 C         4.384830        -0.514205         1.445409
 C         4.690763         0.552528         0.384733
 C         3.826179         1.073680        -0.630541
 C         2.379010         0.859452        -0.851059
 O         1.857516        -0.339482        -1.440073
 H         0.015344         0.815127         1.569981
 H        -0.178820         1.487443        -0.028221
 H        -0.595165        -0.269860         0.331041
 H         2.016522        -0.165300         2.017464
 H         1.364164        -1.729679         1.358332
 H         4.308636        -0.044117         2.569117
 H         5.262685        -1.176152         1.515891
 H         5.674596         0.983380         0.440386
 H         4.196738         1.876237        -1.285303
 H         2.021747         1.781288        -1.475636
