19
Iteration:  4814
 C         0.033113         0.215604         0.146981
 C         1.662895        -0.000471         0.046878
 C         2.022955        -0.991756         1.000640
 O         3.281198        -1.551960         0.907941
 C         4.313871        -0.670110         1.284919
 C         4.768295         0.347775         0.287607
 C         3.942152         1.277290        -0.321769
 C         2.392527         1.186062        -0.385704
 O         1.933432         0.044944        -1.324029
 H        -0.190774         0.404742         1.144862
 H        -0.270732         0.860424        -0.714525
 H        -0.280981        -0.817912         0.103382
 H         1.741640        -0.768054         2.044221
 H         1.367772        -1.829466         0.889554
 H         4.237936        -0.218057         2.275211
 H         5.211340        -1.337352         1.387557
 H         5.884464         0.563742         0.175081
 H         4.359515         2.180719        -0.820821
 H         1.822048         2.181882        -0.504375
