19
Iteration:  1405
 C         0.066655         0.434138         0.199893
 C         1.468476        -0.032608         0.017698
 C         2.002995        -0.756670         1.152977
 O         3.399514        -1.392528         1.074201
 C         4.452877        -0.533118         1.386955
 C         4.767114         0.583370         0.399682
 C         3.880501         0.963137        -0.580809
 C         2.431458         0.858755        -0.741583
 O         1.833096        -0.372209        -1.335567
 H        -0.009332         1.394147         0.709491
 H        -0.537346         0.593536        -0.666474
 H        -0.592814        -0.227706         0.914506
 H         1.984760        -0.101763         2.098163
 H         1.489438        -1.607952         1.480170
 H         4.425235        -0.099984         2.370315
 H         5.488502        -1.010722         1.150917
 H         5.816252         0.950598         0.435998
 H         4.293588         1.856597        -1.190605
 H         2.021801         1.746299        -1.100281
