19
Iteration:  2876
 C        -0.008389         0.375727         0.087242
 C         1.521009         0.064963         0.101262
 C         2.161897        -0.793394         1.251862
 O         3.258028        -1.399213         0.672397
 C         4.526115        -0.813938         1.098637
 C         4.703813         0.581692         0.517155
 C         3.838662         1.222889        -0.245308
 C         2.435924         0.948781        -0.615006
 O         1.914939        -0.337381        -1.210276
 H        -0.369552         1.069986        -0.828803
 H        -0.551194        -0.640041        -0.056944
 H        -0.320648         0.761569         1.118415
 H         2.329776        -0.137311         2.227447
 H         1.308063        -1.439559         1.664456
 H         4.745096        -0.888594         2.301979
 H         5.241071        -1.510987         0.752125
 H         5.734790         1.093646         0.745623
 H         4.002094         2.214261        -0.535783
 H         1.909013         1.692632        -1.099199
