19
Iteration:  1648
 C        -0.015433         0.283504         0.246986
 C         1.419112         0.090077        -0.023472
 C         2.122186        -0.770333         1.108988
 O         3.365708        -1.401661         1.105586
 C         4.493887        -0.578205         1.395912
 C         4.756645         0.490953         0.373462
 C         3.954674         1.017098        -0.603476
 C         2.447022         0.906797        -0.762771
 O         1.806673        -0.268321        -1.340331
 H        -0.164694         1.257715         0.747301
 H        -0.855907         0.144735        -0.516629
 H        -0.397098        -0.439834         1.042914
 H         2.136071         0.121858         1.805381
 H         1.395899        -1.403201         1.588466
 H         4.167043        -0.031667         2.342078
 H         5.412274        -1.289473         1.628993
 H         5.806996         0.899658         0.561468
 H         4.404116         1.865319        -1.060984
 H         2.144269         1.782763        -1.177467
