19
Iteration:  1221
 C         0.054729         0.472034         0.193910
 C         1.562417         0.010453         0.049446
 C         2.084801        -0.894658         1.201046
 O         3.418502        -1.394038         1.080789
 C         4.432031        -0.505224         1.426987
 C         4.741002         0.505066         0.353624
 C         3.846429         1.086501        -0.552584
 C         2.429349         0.863375        -0.776308
 O         1.792769        -0.348949        -1.330822
 H        -0.093573         1.172444         0.982909
 H        -0.075933         0.939019        -0.743128
 H        -0.689687        -0.367635         0.231848
 H         1.805011        -0.343334         2.133606
 H         1.360166        -1.809464         1.173575
 H         4.196226         0.016668         2.340111
 H         5.203870        -1.183252         1.650082
 H         5.756408         0.724228         0.004213
 H         4.346812         1.859332        -1.356966
 H         1.948096         1.895024        -1.124483
