19
Iteration:   740charge 0 multiplicity 1
 C        -0.001761         0.353442         0.394042
 C         1.521779         0.039073        -0.025741
 C         2.043916        -0.766539         1.120002
 O         3.349109        -1.354964         1.015177
 C         4.370418        -0.534212         1.388091
 C         4.713892         0.492338         0.430308
 C         3.940826         1.069086        -0.587974
 C         2.507810         0.887409        -0.847331
 O         1.905389        -0.383291        -1.354387
 H        -0.139299         1.184565         1.099192
 H        -0.858412         0.494820        -0.404415
 H        -0.379919        -0.482015         1.049279
 H         2.091462        -0.045419         2.039947
 H         1.341319        -1.544265         1.379288
 H         4.187971        -0.051805         2.333385
 H         5.340447        -1.180817         1.524763
 H         5.721760         0.922749         0.519022
 H         4.296907         1.804757        -1.162114
 H         2.111010         1.689003        -1.376427
