19
Iteration:   837charge 0 multiplicity 1
 C         0.140344         0.211375         0.394669
 C         1.550932         0.085517         0.007293
 C         2.030103        -0.758685         1.137375
 O         3.310334        -1.374394         1.133790
 C         4.349647        -0.470354         1.461925
 C         4.770150         0.419865         0.328583
 C         3.916615         0.999766        -0.664028
 C         2.466587         0.946302        -0.886615
 O         1.847844        -0.234279        -1.362562
 H         0.014449         0.396899         1.458928
 H        -0.507080         1.067234        -0.101846
 H        -0.406232        -0.716224         0.114052
 H         1.717613        -0.303417         2.056737
 H         1.496277        -1.703568         1.127632
 H         4.139434         0.144122         2.416918
 H         5.215438        -1.110979         1.688917
 H         5.765082         0.780247         0.122694
 H         4.312965         1.595505        -1.337430
 H         1.974952         1.857605        -1.199093
