19
Iteration:  3055charge 0 multiplicity 1
 C         0.168710         0.445091         0.395953
 C         1.581638         0.027272         0.043960
 C         2.014890        -1.090177         0.938916
 O         3.372599        -1.562073         0.846398
 C         4.360747        -0.586395         1.327734
 C         4.684674         0.594050         0.484696
 C         3.914352         1.184689        -0.402595
 C         2.462391         1.008500        -0.648955
 O         1.808198        -0.155289        -1.355038
 H        -0.354792         0.791586        -0.459256
 H        -0.397838        -0.470693         0.629732
 H         0.075359         1.185927         1.227281
 H         1.734553        -0.694313         1.977304
 H         1.435557        -2.064956         0.760355
 H         4.037185        -0.296906         2.356387
 H         5.232457        -1.249099         1.416046
 H         5.693081         0.883439         0.585608
 H         4.438622         1.985583        -0.986785
 H         1.910283         1.883722        -1.012571
