19
Iteration:  4593
 C         0.004194         0.301020         0.081051
 C         1.538229         0.023469         0.133747
 C         1.978759        -1.099290         1.098975
 O         3.273473        -1.463925         0.868321
 C         4.288305        -0.561553         1.226401
 C         4.746138         0.396159         0.155090
 C         3.918468         1.274319        -0.428387
 C         2.483267         1.129752        -0.338035
 O         2.131010        -0.123174        -1.112636
 H        -0.481674        -0.167502        -0.770982
 H        -0.459390        -0.207503         1.001846
 H        -0.033667         1.366082         0.108622
 H         1.721605        -0.838798         2.152864
 H         1.386374        -2.010502         0.736438
 H         4.004647         0.037069         2.042409
 H         5.109712        -1.128928         1.692736
 H         5.702965         0.271127        -0.223508
 H         4.219463         2.015091        -1.206104
 H         1.824972         1.970288        -0.723238
