19
Iteration:    20charge 0 multiplicity 1
 C         0.068273         0.506367         0.157340
 C         1.523267         0.112727         0.107617
 C         1.983901        -0.881533         1.150876
 O         3.331142        -1.401836         1.133448
 C         4.517321        -0.638265         1.191153
 C         4.643139         0.578340         0.285265
 C         3.800557         1.239463        -0.533288
 C         2.406938         0.953056        -0.764623
 O         2.027279        -0.531715        -1.080445
 H        -0.184132         1.275930         0.987653
 H        -0.266584         0.941547        -0.677381
 H        -0.621370        -0.388943         0.387103
 H         1.626870        -0.683227         2.249390
 H         1.304478        -1.731354         0.878941
 H         4.875249        -0.467230         2.244061
 H         5.227786        -1.257109         0.785577
 H         5.708854         0.711670         0.067986
 H         4.357186         1.886064        -1.324515
 H         1.864235         1.677178        -1.521218
