19
Iteration:  1922charge 0 multiplicity 1
 C         0.135568         0.446233         0.181991
 C         1.531291        -0.004126        -0.023087
 C         2.149016        -0.701312         1.234630
 O         3.323355        -1.377748         1.094515
 C         4.569501        -0.702364         1.239872
 C         4.660054         0.649783         0.503247
 C         3.799630         1.109213        -0.442251
 C         2.395889         0.786133        -0.898429
 O         1.792901        -0.451443        -1.336715
 H         0.060104         1.294189         1.016404
 H        -0.351685         0.860703        -0.679060
 H        -0.392975        -0.318970         0.663783
 H         2.229358         0.199335         1.912234
 H         1.336025        -1.374547         1.559995
 H         4.510720        -0.504093         2.338499
 H         5.340943        -1.482582         1.073443
 H         5.521287         1.175562         0.752923
 H         3.985902         2.167695        -0.848842
 H         1.951188         1.705763        -1.428604
