19
Iteration:  3636
 C         0.023666         0.311680         0.355928
 C         1.538633         0.007515         0.031273
 C         1.995523        -0.987240         1.055100
 O         3.318427        -1.502473         0.864440
 C         4.397648        -0.625556         1.293573
 C         4.751165         0.520217         0.396825
 C         3.903619         1.164069        -0.435351
 C         2.450532         1.023515        -0.571238
 O         1.960246        -0.048121        -1.337750
 H        -0.450040         0.639980        -0.574209
 H        -0.352104        -0.800423         0.471310
 H        -0.116819         0.949682         1.256493
 H         1.694117        -0.574822         2.081283
 H         1.372077        -1.906070         0.874702
 H         4.156462        -0.343885         2.260882
 H         5.385974        -1.297664         1.262139
 H         5.761148         0.813392         0.365922
 H         4.414675         1.816821        -1.110281
 H         1.894123         2.021889        -0.792886
