19
Iteration:   504
 C        -0.020872         0.460521         0.155167
 C         1.468283        -0.019139         0.107454
 C         2.032337        -0.805334         1.253296
 O         3.356880        -1.320165         0.817924
 C         4.464919        -0.556407         1.346370
 C         4.846555         0.573541         0.344091
 C         3.953858         1.096786        -0.527638
 C         2.475864         0.844678        -0.661767
 O         1.782918        -0.463539        -1.185744
 H        -0.066924         1.391068         0.723845
 H        -0.179758         0.535024        -1.001504
 H        -0.686758        -0.276811         0.566563
 H         1.992660        -0.278163         2.185611
 H         1.407501        -1.747706         1.441720
 H         4.217000        -0.034940         2.339810
 H         5.318625        -1.254214         1.555107
 H         5.845518         1.079019         0.396549
 H         4.241385         1.825373        -1.227692
 H         1.966332         1.630275        -1.258657
