19
Iteration:   891
 C         0.086030         0.463487         0.144700
 C         1.501281         0.005952         0.069812
 C         2.023893        -0.898612         1.238668
 O         3.387251        -1.310886         1.077708
 C         4.429405        -0.471745         1.333174
 C         4.804059         0.465120         0.226956
 C         3.851011         1.042580        -0.509807
 C         2.401556         0.891863        -0.643012
 O         1.847975        -0.390310        -1.313946
 H        -0.167991         0.974457         1.040114
 H        -0.146061         1.090248        -0.821655
 H        -0.562497        -0.405680         0.085321
 H         1.819290        -0.414003         2.201873
 H         1.414637        -1.831912         1.317894
 H         4.361632         0.092859         2.337611
 H         5.287907        -1.071058         1.502404
 H         5.819800         0.729517         0.133277
 H         4.209040         1.719113        -1.217648
 H         1.979166         1.819671        -1.081819
