19
Iteration:  2119
 C         0.187272         0.621928         0.243023
 C         1.503791        -0.055356         0.115395
 C         2.037936        -1.009302         1.152665
 O         3.361351        -1.319553         0.816877
 C         4.349055        -0.466899         1.315136
 C         4.717986         0.658720         0.447800
 C         3.899660         1.051046        -0.565568
 C         2.477172         0.821366        -0.667534
 O         1.841215        -0.513494        -1.213955
 H         0.005876         1.240343         1.128935
 H        -0.199548         1.023735        -0.671188
 H        -0.664994        -0.087075         0.364529
 H         1.996222        -0.422723         2.041338
 H         1.490161        -1.954587         1.325026
 H         3.894136         0.034004         2.170939
 H         5.130424        -1.072315         1.655071
 H         5.682392         1.118165         0.464658
 H         4.265123         1.731607        -1.315536
 H         2.032265         1.720998        -1.263318
