19
Iteration:  1588charge 0 multiplicity 1
 C         0.004459         0.474920         0.088375
 C         1.515355         0.083249         0.121322
 C         2.003408        -0.796308         1.291853
 O         3.238739        -1.458305         1.099934
 C         4.402428        -0.681488         1.105895
 C         4.720736         0.585354         0.188504
 C         3.847091         1.314377        -0.542467
 C         2.447889         0.867612        -0.773883
 O         2.121926        -0.529736        -1.030587
 H        -0.191534         1.184404         0.942388
 H        -0.182967         0.920893        -0.860612
 H        -0.469145        -0.498999         0.347391
 H         2.063144        -0.182814         2.227150
 H         1.381520        -1.743870         1.501431
 H         4.426069        -0.196375         2.115150
 H         5.179581        -1.351383         1.061916
 H         5.684109         1.009543         0.415682
 H         4.037975         2.346151        -1.028110
 H         1.952401         1.609309        -1.536966
