19
Iteration:  1248charge 0 multiplicity 1
 C         0.003257         0.230162         0.369381
 C         1.483749         0.061067        -0.049820
 C         2.015034        -0.774080         1.129942
 O         3.359574        -1.355450         1.033073
 C         4.352516        -0.434988         1.444768
 C         4.791958         0.495051         0.361376
 C         4.003340         0.870076        -0.642600
 C         2.498817         0.901718        -0.726677
 O         1.848405        -0.207503        -1.371410
 H        -0.054025         0.812148         1.330075
 H        -0.718663         0.641011        -0.426311
 H        -0.335703        -0.774913         0.403625
 H         2.019236         0.119211         1.861989
 H         1.319506        -1.575078         1.360728
 H         4.132104         0.072991         2.444521
 H         5.115901        -1.203361         1.880527
 H         5.787739         0.910550         0.247675
 H         4.323435         1.412605        -1.406893
 H         2.244975         1.876777        -0.886293
