19
Iteration:   441charge 0 multiplicity 1
 C         0.292994         0.413338         0.328016
 C         1.688832         0.009103         0.018241
 C         2.124827        -0.842521         1.203047
 O         3.328041        -1.529613         1.241279
 C         4.247316        -0.517986         1.277694
 C         4.568392         0.536922         0.271393
 C         3.797560         1.231578        -0.619733
 C         2.458177         0.887861        -0.888363
 O         1.840959        -0.389425        -1.301011
 H        -0.008445         0.975858         1.248598
 H        -0.022585         1.175009        -0.418452
 H        -0.440250        -0.411745         0.212169
 H         2.004832        -0.253995         2.230937
 H         1.327118        -1.547084         1.313632
 H         4.059327         0.038835         2.234012
 H         5.300388        -0.996131         1.549344
 H         5.604179         0.784816         0.256859
 H         4.362490         2.040769        -1.371261
 H         1.915516         1.737382        -1.340542
