19
Iteration:  1237
 C         0.009329         0.318884         0.268055
 C         1.448651         0.030903        -0.006362
 C         2.086968        -0.838012         1.187041
 O         3.368891        -1.373014         1.045412
 C         4.410309        -0.455306         1.463521
 C         4.798227         0.474076         0.365367
 C         3.976295         0.936209        -0.626419
 C         2.421918         0.911527        -0.752679
 O         1.817631        -0.228481        -1.397810
 H        -0.107190         0.925254         1.216883
 H        -0.487171         0.898940        -0.575371
 H        -0.468320        -0.602045         0.537452
 H         2.051436        -0.195280         2.135848
 H         1.437564        -1.639929         1.514329
 H         4.037262         0.144755         2.354438
 H         5.385357        -1.052614         1.628172
 H         5.812883         0.823293         0.548333
 H         4.464059         1.516527        -1.275052
 H         2.013159         1.735988        -1.197040
