19
Iteration:  2773charge 0 multiplicity 1
 C        -0.049839         0.331161         0.233548
 C         1.506233         0.082043         0.030746
 C         2.076427        -0.957206         1.046506
 O         3.372369        -1.435673         0.798302
 C         4.409858        -0.651829         1.333329
 C         4.794420         0.473383         0.436742
 C         3.923561         1.086819        -0.342605
 C         2.418306         0.993024        -0.590050
 O         1.879714        -0.108233        -1.273288
 H        -0.498251         0.773924        -0.669895
 H        -0.578205        -0.706954         0.274047
 H        -0.223995         1.017019         1.156692
 H         2.054204        -0.470885         2.101804
 H         1.470119        -1.835813         0.943320
 H         4.362579        -0.299598         2.466095
 H         5.301458        -1.272360         1.225220
 H         5.757229         0.810179         0.286957
 H         4.300113         1.903046        -1.010502
 H         2.019792         1.971089        -0.915223
