19
Iteration:   558
 C         0.125727         0.375283         0.229208
 C         1.544802        -0.015106         0.006852
 C         1.988433        -0.844641         1.223926
 O         3.275595        -1.436504         1.260220
 C         4.410317        -0.605869         1.227032
 C         4.692725         0.505668         0.234600
 C         3.830710         1.237301        -0.600457
 C         2.412348         0.979126        -0.748105
 O         2.011180        -0.367215        -1.292134
 H         0.093552         1.109354         1.032779
 H        -0.262738         0.909580        -0.691834
 H        -0.461807        -0.487076         0.461766
 H         1.782873        -0.296634         2.164810
 H         1.326141        -1.747871         1.437241
 H         4.701730        -0.199332         2.275661
 H         5.209741        -1.245887         1.035194
 H         5.770713         0.836102         0.289388
 H         4.284791         2.076821        -1.058917
 H         1.849998         1.789299        -1.266945
