19
Iteration:  3260charge 0 multiplicity 1
 C        -0.023076         0.320421         0.289112
 C         1.454212         0.034356         0.091604
 C         2.011811        -1.005046         1.106369
 O         3.342494        -1.409716         0.710846
 C         4.430046        -0.613124         1.271863
 C         4.804397         0.569576         0.484419
 C         4.001092         1.102410        -0.414212
 C         2.489436         1.020818        -0.542469
 O         1.832957        -0.198966        -1.314212
 H        -0.176590         1.212557        -0.250484
 H        -0.618796        -0.494608        -0.200298
 H        -0.217912         0.428573         1.340862
 H         2.100980        -0.443509         1.969783
 H         1.438050        -1.904948         1.183516
 H         4.195072        -0.110358         2.342150
 H         5.249826        -1.330317         1.382500
 H         5.870004         0.843811         0.498304
 H         4.342903         1.922183        -1.025897
 H         1.937981         1.936316        -0.994085
