19
Iteration:  3219
 C         0.088721         0.286808         0.215168
 C         1.623760         0.019047         0.096131
 C         2.024014        -1.088230         1.082152
 O         3.364496        -1.634842         1.107952
 C         4.343533        -0.590137         1.260391
 C         4.627254         0.367797         0.155518
 C         3.879677         1.269485        -0.435469
 C         2.345738         1.241943        -0.555325
 O         2.040504        -0.008472        -1.317632
 H        -0.302919         1.030041        -0.472982
 H        -0.608805        -0.725971        -0.018690
 H        -0.142929         0.441344         1.455441
 H         1.785963        -0.698064         2.224701
 H         1.355016        -1.891817         0.699864
 H         3.995269        -0.054612         2.089346
 H         5.277519        -0.988172         1.491019
 H         5.739676         0.407398        -0.160446
 H         4.350215         1.987145        -1.024742
 H         1.831667         2.181030        -0.708132
