19
Iteration:  3758charge 0 multiplicity 1
 C        -0.013328         0.300077         0.291919
 C         1.529839         0.050863        -0.022934
 C         2.105250        -0.917705         1.136890
 O         3.359232        -1.483318         0.858482
 C         4.438556        -0.677283         1.341852
 C         4.651847         0.442846         0.335486
 C         3.813458         1.164677        -0.400757
 C         2.411553         1.072333        -0.582469
 O         1.986757        -0.104627        -1.329033
 H        -0.463511         1.038491        -0.312374
 H        -0.489885        -0.591357        -0.040075
 H        -0.017230         0.342480         1.377928
 H         2.123520        -0.315589         2.122776
 H         1.402990        -1.736581         1.219636
 H         4.191906        -0.303741         2.371218
 H         5.283776        -1.448414         1.224259
 H         5.779636         0.648836         0.202640
 H         4.367723         1.903384        -0.963242
 H         1.985112         2.116800        -0.839953
