19
Iteration:   694
 C         0.116355         0.479685         0.110707
 C         1.499699        -0.017690         0.007468
 C         2.138525        -0.847895         1.235625
 O         3.385225        -1.474555         1.241003
 C         4.475917        -0.581169         1.285014
 C         4.621324         0.514650         0.357495
 C         3.837842         1.158028        -0.546232
 C         2.387471         0.911421        -0.777638
 O         1.850799        -0.363253        -1.333435
 H         0.093696         1.388727         0.790139
 H        -0.215758         0.777296        -0.951515
 H        -0.685998        -0.211704         0.538483
 H         2.110396        -0.215798         2.203451
 H         1.316983        -1.576570         1.360049
 H         4.588368        -0.255936         2.317211
 H         5.398619        -1.209286         1.073450
 H         5.615556         0.967997         0.422879
 H         4.153311         1.994712        -1.092479
 H         1.866623         1.801570        -1.206144
