19
Iteration:  3958
 C         0.017991         0.323383         0.171432
 C         1.527627         0.130399         0.111878
 C         2.043666        -1.045783         1.126842
 O         3.311833        -1.552697         1.012174
 C         4.411295        -0.706574         1.183985
 C         4.702356         0.472120         0.277848
 C         3.841550         1.231337        -0.395042
 C         2.368528         1.119245        -0.517394
 O         2.075632        -0.100514        -1.297812
 H        -0.342824         0.863553        -0.810210
 H        -0.326986        -0.755268         0.196861
 H        -0.352994         0.954994         1.018399
 H         1.800575        -0.801196         2.164135
 H         1.395038        -1.806022         0.858535
 H         4.447021        -0.328188         2.190364
 H         5.282537        -1.387671         1.114268
 H         5.722286         0.794217         0.294436
 H         4.211827         2.108745        -1.012564
 H         1.957121         1.994708        -0.913115
