19
Iteration:   443
 C         0.278299         0.430865         0.327811
 C         1.687070         0.010948         0.001094
 C         2.127366        -0.843940         1.200067
 O         3.338294        -1.535168         1.256451
 C         4.255038        -0.532319         1.278175
 C         4.559562         0.558008         0.268263
 C         3.813739         1.218882        -0.609110
 C         2.449148         0.884570        -0.901253
 O         1.839569        -0.388126        -1.304820
 H         0.001149         1.007984         1.271187
 H        -0.076602         1.109920        -0.335350
 H        -0.432114        -0.463614         0.241012
 H         2.014466        -0.209452         2.197903
 H         1.333819        -1.582566         1.274575
 H         4.101040         0.062432         2.294114
 H         5.233809        -1.027303         1.517845
 H         5.582666         0.781589         0.267010
 H         4.374691         2.075242        -1.356824
 H         1.922829         1.753190        -1.335671
