19
Iteration:  4099charge 0 multiplicity 1
 C         0.245266         0.573303         0.438236
 C         1.537720         0.054083         0.009013
 C         2.072248        -1.119367         0.932000
 O         3.422804        -1.524288         0.793256
 C         4.275731        -0.563280         1.401606
 C         4.616184         0.639077         0.541552
 C         3.812989         1.121322        -0.416595
 C         2.437122         0.876944        -0.674259
 O         1.887371        -0.261899        -1.424247
 H         0.140085         1.619282        -0.003407
 H        -0.590139        -0.101679         0.374531
 H         0.402067         0.876259         1.453838
 H         1.827392        -0.829627         1.988916
 H         1.345966        -1.961319         0.743996
 H         3.850924        -0.386747         2.484049
 H         5.160330        -1.101279         1.626264
 H         5.594658         1.100768         0.657298
 H         4.281979         2.007046        -0.951437
 H         2.003285         1.835358        -1.032237
