19
Iteration:  1896
 C        -0.035471         0.383539         0.251014
 C         1.481702         0.073105        -0.012754
 C         2.154304        -0.691327         1.197333
 O         3.377605        -1.365350         1.008205
 C         4.471809        -0.635584         1.356518
 C         4.646099         0.587659         0.455249
 C         3.835692         1.038541        -0.536510
 C         2.440461         0.852320        -0.783465
 O         1.912197        -0.436713        -1.330910
 H        -0.008805         1.271849         0.758275
 H        -0.642903         0.717268        -0.613716
 H        -0.541553        -0.320864         1.049311
 H         2.289633         0.119218         1.955752
 H         1.318928        -1.457550         1.476130
 H         4.524617        -0.579453         2.408478
 H         5.329615        -1.284954         1.158124
 H         5.728359         0.987271         0.559013
 H         4.251015         1.775799        -1.233084
 H         2.122761         1.769626        -1.445523
