19
Iteration:  1371
 C         0.072420         0.336175         0.391817
 C         1.526538         0.112052        -0.036121
 C         2.051822        -0.769450         1.195839
 O         3.413621        -1.368366         0.938218
 C         4.328158        -0.434355         1.498387
 C         4.715686         0.530215         0.444215
 C         4.029553         0.963481        -0.589271
 C         2.414162         0.833415        -0.929404
 O         1.782197        -0.371895        -1.335206
 H         0.031924         1.078682         1.201514
 H        -0.393550         0.799609        -0.459626
 H        -0.462971        -0.651182         0.762995
 H         1.994815        -0.023186         2.071592
 H         1.412453        -1.612233         1.181756
 H         4.030609        -0.184945         2.515919
 H         5.237797        -1.136386         1.769586
 H         5.810555         0.799030         0.430041
 H         4.446519         1.749150        -1.331778
 H         2.042530         1.636240        -1.462990
