19
Iteration:  3518
 C         0.105871         0.440439         0.358020
 C         1.486702         0.046819         0.060213
 C         2.077173        -0.907898         1.027200
 O         3.401608        -1.469402         0.662585
 C         4.405919        -0.725780         1.343284
 C         4.786046         0.628135         0.544695
 C         3.910807         1.182976        -0.355817
 C         2.443848         0.893897        -0.741871
 O         1.764671        -0.284097        -1.284598
 H        -0.207641         1.520005        -0.048934
 H        -0.633191        -0.190639        -0.178813
 H        -0.174889         0.418106         1.471502
 H         2.142113        -0.446840         2.120215
 H         1.470980        -1.788232         1.044363
 H         4.034554        -0.423499         2.347923
 H         5.241290        -1.314195         1.444991
 H         5.642972         1.142464         0.906352
 H         4.193366         2.124844        -0.789306
 H         1.980231         1.777136        -1.168685
