19
Iteration:  3635charge 0 multiplicity 1
 C         0.013959         0.306221         0.352895
 C         1.542552         0.000437         0.035666
 C         2.004293        -0.989760         1.050045
 O         3.320440        -1.505721         0.877050
 C         4.399004        -0.627743         1.288251
 C         4.743471         0.515205         0.396846
 C         3.900580         1.167134        -0.441029
 C         2.449349         1.033660        -0.571286
 O         1.967725        -0.038704        -1.336635
 H        -0.431967         0.666481        -0.539943
 H        -0.356923        -0.839971         0.487263
 H        -0.102243         0.983106         1.220154
 H         1.668573        -0.546575         2.081516
 H         1.331794        -1.921723         0.878669
 H         4.155292        -0.352230         2.284658
 H         5.372699        -1.316464         1.256604
 H         5.738876         0.803504         0.343989
 H         4.416103         1.821928        -1.155384
 H         1.907036         2.030730        -0.804603
