19
Iteration:   508
 C        -0.040750         0.460462         0.119016
 C         1.491387        -0.010706         0.149328
 C         2.059639        -0.814790         1.250604
 O         3.347267        -1.331104         0.801096
 C         4.429061        -0.564094         1.325847
 C         4.826165         0.577916         0.320062
 C         3.965948         1.080425        -0.518823
 C         2.473509         0.848828        -0.686391
 O         1.820085        -0.453329        -1.146528
 H        -0.128074         1.459294         0.701086
 H        -0.229839         0.561321        -0.905613
 H        -0.755104        -0.318963         0.575578
 H         2.023252        -0.377736         2.314723
 H         1.440798        -1.624504         1.561805
 H         4.092920        -0.052482         2.174159
 H         5.405447        -1.220825         1.718959
 H         5.773400         1.018623         0.468911
 H         4.291944         2.041073        -1.300572
 H         1.893898         1.592572        -1.259906
