19
Iteration:  1649charge 0 multiplicity 1
 C        -0.015485         0.282752         0.253629
 C         1.421681         0.092850        -0.033261
 C         2.115976        -0.774333         1.112077
 O         3.369988        -1.402893         1.107997
 C         4.479293        -0.579896         1.391961
 C         4.758685         0.495292         0.369846
 C         3.956366         1.012573        -0.596536
 C         2.454799         0.903348        -0.767059
 O         1.805651        -0.266760        -1.336617
 H        -0.180035         1.270436         0.772771
 H        -0.849478         0.130552        -0.482655
 H        -0.368644        -0.424641         1.009741
 H         2.144620         0.113879         1.794555
 H         1.410391        -1.414298         1.562455
 H         4.171694        -0.031259         2.362902
 H         5.417009        -1.279279         1.652105
 H         5.792125         0.912788         0.543487
 H         4.405045         1.907221        -1.094216
 H         2.135296         1.804301        -1.197605
