19
Iteration:  1021charge 0 multiplicity 1
 C         0.025836         0.322152         0.042208
 C         1.528000         0.063497         0.112428
 C         2.059418        -0.586010         1.359029
 O         3.248563        -1.374364         1.094251
 C         4.493843        -0.707450         1.135493
 C         4.693617         0.527919         0.322523
 C         3.831350         1.215706        -0.511270
 C         2.443985         0.858879        -0.753137
 O         1.983942        -0.473873        -1.178848
 H        -0.378582         0.745154         0.882399
 H        -0.200261         0.985218        -0.827387
 H        -0.356100        -0.624749        -0.167164
 H         2.185378         0.186218         2.124208
 H         1.272160        -1.350063         1.617309
 H         4.714795        -0.387391         2.246705
 H         5.189105        -1.413715         0.808302
 H         5.705068         0.796727         0.535598
 H         4.174038         2.094866        -0.999126
 H         2.004980         1.668863        -1.304795
