19
Iteration:  1828
 C         0.013239         0.475529         0.107118
 C         1.499942        -0.009205         0.102590
 C         2.080529        -1.011393         1.235551
 O         3.343778        -1.436651         1.171574
 C         4.394988        -0.422678         1.394002
 C         4.739721         0.423784         0.136056
 C         3.833139         1.082018        -0.688003
 C         2.389832         0.973999        -0.618418
 O         2.042949        -0.283275        -1.219381
 H        -0.137642         0.978503         1.069667
 H        -0.079368         1.212827        -0.705978
 H        -0.801514        -0.304784         0.189601
 H         1.857460        -0.569035         2.259043
 H         1.412775        -1.898582         1.026014
 H         4.144946         0.313713         2.128085
 H         5.234918        -1.114793         1.672199
 H         5.760709         0.763108        -0.110715
 H         4.063530         1.660267        -1.530432
 H         1.892179         1.799508        -1.208095
