19
Iteration:  4719charge 0 multiplicity 1
 C         0.073912         0.566463         0.309533
 C         1.546451         0.042174         0.074576
 C         2.033083        -1.047119         1.008232
 O         3.331611        -1.452289         0.583079
 C         4.416426        -0.721046         1.240109
 C         4.534178         0.589936         0.613005
 C         3.870185         1.256246        -0.314242
 C         2.462373         0.947291        -0.665948
 O         2.045708        -0.343768        -1.191981
 H        -0.710136        -0.257298         0.217203
 H         0.108697         1.155517         1.212694
 H        -0.165792         1.358857        -0.503849
 H         1.868347        -0.717679         2.085675
 H         1.324866        -1.977675         1.080136
 H         4.237701        -0.769980         2.351599
 H         5.294238        -1.345440         1.110088
 H         5.533044         1.148341         0.900848
 H         4.279112         2.172877        -0.770711
 H         1.903415         1.829230        -1.094222
