19
Iteration:  2877
 C        -0.007601         0.374851         0.088969
 C         1.526430         0.064390         0.105133
 C         2.159428        -0.789207         1.250960
 O         3.258412        -1.395863         0.665170
 C         4.527595        -0.812748         1.097535
 C         4.707875         0.587745         0.526355
 C         3.831530         1.213685        -0.240422
 C         2.435980         0.952310        -0.612809
 O         1.908974        -0.343001        -1.214849
 H        -0.334860         1.066207        -0.783542
 H        -0.531469        -0.601535        -0.062771
 H        -0.325181         0.737553         1.082976
 H         2.361705        -0.138990         2.184173
 H         1.296254        -1.405373         1.679447
 H         4.735527        -0.902634         2.321434
 H         5.244767        -1.538506         0.753352
 H         5.735309         1.103250         0.750809
 H         4.004342         2.210549        -0.568947
 H         1.904423         1.669803        -1.117163
