19
Iteration:  3970charge 0 multiplicity 1
 C         0.034466         0.204847         0.173441
 C         1.572656         0.052634         0.105216
 C         1.995389        -0.986695         1.049946
 O         3.322298        -1.590409         1.133001
 C         4.445101        -0.715074         1.220879
 C         4.665310         0.437440         0.249080
 C         3.874774         1.266029        -0.420990
 C         2.430404         1.159584        -0.550605
 O         1.986282         0.023727        -1.321772
 H        -0.296069         0.696281        -0.821023
 H        -0.579332        -0.682898         0.259117
 H        -0.282675         0.831527         1.060678
 H         1.742150        -0.530284         2.010539
 H         1.415841        -1.811162         0.868515
 H         4.485944        -0.293372         2.224815
 H         5.324471        -1.420861         1.129695
 H         5.766489         0.523317         0.111682
 H         4.383281         2.163975        -0.906554
 H         1.833434         2.043345        -0.794115
