19
Iteration:  2660
 C         0.096649         0.316646         0.386131
 C         1.537718         0.023387         0.088077
 C         2.026965        -1.062473         0.996084
 O         3.383686        -1.485909         0.939901
 C         4.342564        -0.527393         1.423614
 C         4.723374         0.524235         0.366510
 C         3.945156         1.076220        -0.558506
 C         2.438272         0.953255        -0.627686
 O         1.854199        -0.033697        -1.430353
 H        -0.166528         1.224379         0.997227
 H        -0.352901         0.488148        -0.528947
 H        -0.242876        -0.516465         0.937773
 H         1.851639        -0.716348         2.073078
 H         1.423322        -1.984620         0.903334
 H         3.976253         0.047121         2.300373
 H         5.102445        -1.237486         1.872907
 H         5.806005         0.817249         0.399119
 H         4.330780         1.947451        -1.097122
 H         2.084149         2.072214        -0.872020
