19
Iteration:  2063
 C         0.094039         0.303804         0.195060
 C         1.573091         0.016632         0.014830
 C         2.087214        -0.785788         1.240659
 O         3.274244        -1.441915         1.193851
 C         4.404066        -0.633557         1.300550
 C         4.719913         0.505031         0.228693
 C         3.891101         1.214121        -0.558024
 C         2.460446         0.926161        -0.723506
 O         1.854615        -0.282024        -1.340228
 H        -0.096467         0.757162         1.157789
 H        -0.283432         0.947991        -0.581619
 H        -0.406005        -0.702337         0.294378
 H         1.991140        -0.108264         2.070230
 H         1.452853        -1.685975         1.438534
 H         4.382246        -0.067980         2.334987
 H         5.201915        -1.320126         1.355713
 H         5.711534         0.783904         0.278192
 H         4.243991         2.084060        -1.095197
 H         1.925055         1.806682        -1.248919
