19
Iteration:  1595
 C         0.006177         0.419053         0.129950
 C         1.512398         0.037391         0.096239
 C         1.998920        -0.749705         1.290555
 O         3.310199        -1.436856         1.078181
 C         4.408234        -0.672372         1.170059
 C         4.721873         0.577665         0.170006
 C         3.850851         1.251001        -0.549211
 C         2.436610         0.906516        -0.740308
 O         2.086153        -0.507982        -1.066063
 H        -0.297611         1.372091         0.650897
 H        -0.083956         0.834492        -0.931527
 H        -0.716610        -0.327813         0.357202
 H         1.862362        -0.138137         2.203993
 H         1.302537        -1.542411         1.420482
 H         4.306017        -0.301836         2.204818
 H         5.253053        -1.465606         0.930020
 H         5.725695         0.936511         0.505937
 H         4.182196         2.243601        -1.002652
 H         1.856109         1.731614        -1.290256
