19
Iteration:  3736charge 0 multiplicity 1
 C         0.122006         0.384954         0.428732
 C         1.589401         0.053134        -0.026618
 C         2.084949        -0.954497         1.034023
 O         3.345882        -1.606618         0.951500
 C         4.401620        -0.698484         1.274461
 C         4.660730         0.579130         0.430956
 C         3.810157         1.269533        -0.367992
 C         2.398428         1.002425        -0.744459
 O         1.899507        -0.183484        -1.391908
 H        -0.050454         1.342273        -0.083152
 H        -0.575241        -0.261713        -0.089285
 H         0.104002         0.258778         1.510949
 H         1.955996        -0.445017         2.101403
 H         1.387867        -1.781480         0.892400
 H         4.193496        -0.224655         2.258579
 H         5.380987        -1.402237         1.278020
 H         5.709480         0.913369         0.802740
 H         4.278833         2.144306        -0.777206
 H         1.825491         1.931782        -1.165431
