19
Iteration:  2001
 C         0.009765         0.189238         0.056714
 C         1.489401         0.099732         0.086241
 C         2.085252        -0.651154         1.355269
 O         3.235422        -1.412255         1.093099
 C         4.459564        -0.628300         1.223544
 C         4.823039         0.439431         0.169140
 C         3.910205         1.212372        -0.462389
 C         2.442004         0.927274        -0.713023
 O         1.902188        -0.335617        -1.206525
 H        -0.372614         0.574743         1.118789
 H        -0.368411         0.836356        -0.754519
 H        -0.410110        -0.717605        -0.240985
 H         2.134002        -0.019219         2.307228
 H         1.248957        -1.305111         1.507332
 H         4.515629        -0.239236         2.205533
 H         5.280564        -1.414029         1.109783
 H         5.881220         0.788892         0.256442
 H         4.127813         2.115545        -0.957119
 H         2.073686         1.751967        -1.276812
