19
Iteration:   973
 C        -0.007468         0.340781         0.218493
 C         1.465009         0.008042        -0.005017
 C         2.151109        -0.579533         1.230963
 O         3.307917        -1.382219         1.049722
 C         4.538509        -0.659525         1.317034
 C         4.684689         0.536273         0.480009
 C         3.828014         1.064124        -0.477534
 C         2.404099         0.875389        -0.851640
 O         1.906813        -0.422736        -1.381000
 H         0.066139         1.234177         0.992531
 H        -0.623768         0.665263        -0.601169
 H        -0.436727        -0.600340         0.729023
 H         2.523474         0.219905         1.853390
 H         1.358493        -1.171202         1.660016
 H         4.350654        -0.385924         2.422729
 H         5.374276        -1.469185         1.123048
 H         5.725382         1.120901         0.569427
 H         4.326433         1.938922        -0.936833
 H         2.072411         1.762125        -1.423666
