19
Iteration:  2268
 C         0.071582         0.355267         0.259577
 C         1.517602         0.081475         0.091259
 C         2.068244        -0.926839         1.113323
 O         3.407218        -1.376199         1.071524
 C         4.313327        -0.372503         1.408264
 C         4.811216         0.526740         0.286412
 C         4.013120         0.969226        -0.642624
 C         2.456349         0.864339        -0.696809
 O         1.746799        -0.283811        -1.306482
 H        -0.191599         0.496396         1.277860
 H        -0.358225         1.270445        -0.124105
 H        -0.525579        -0.527428         0.022479
 H         1.885306        -0.554043         2.093652
 H         1.435647        -1.797729         0.991244
 H         3.929484         0.194996         2.238408
 H         5.144609        -0.972986         1.894965
 H         5.869046         0.685484         0.261541
 H         4.246270         1.555558        -1.502888
 H         2.031504         1.709947        -1.186497
