19
Iteration:  2353
 C        -0.037651         0.504731         0.133921
 C         1.550831         0.028876         0.141440
 C         2.005865        -0.832402         1.298410
 O         3.307406        -1.406975         0.864607
 C         4.473649        -0.606112         1.173218
 C         4.733896         0.626440         0.360178
 C         3.879042         1.182034        -0.484223
 C         2.468790         0.829531        -0.745915
 O         1.958704        -0.502270        -1.123634
 H        -0.139251         1.547458         0.642518
 H        -0.417125         0.413989        -0.896921
 H        -0.611641        -0.165907         0.666833
 H         2.017987        -0.249799         2.293710
 H         1.304405        -1.689782         1.348844
 H         4.365694        -0.120957         2.234919
 H         5.377446        -1.219294         1.158000
 H         5.659489         0.955793         0.588764
 H         4.191540         2.070453        -1.019899
 H         2.048014         1.669948        -1.354765
