19
Iteration:  4523charge 0 multiplicity 1
 C         0.184411         0.385189         0.443875
 C         1.555756         0.048748        -0.032668
 C         2.075351        -1.001163         0.942167
 O         3.431879        -1.450433         0.804192
 C         4.346564        -0.687716         1.420423
 C         4.602971         0.587265         0.666663
 C         3.894306         1.028631        -0.402370
 C         2.477190         0.932918        -0.750470
 O         1.769898        -0.054913        -1.484934
 H        -0.436348        -0.525508         0.842393
 H         0.248766         0.992342         1.367807
 H        -0.351536         1.065941        -0.354584
 H         1.851706        -0.594541         1.995692
 H         1.421856        -1.809400         0.677408
 H         4.111006        -0.623088         2.428456
 H         5.301376        -1.360078         1.610743
 H         5.598271         1.113062         0.704716
 H         4.304198         1.907225        -0.874679
 H         2.028096         1.868544        -0.934523
