19
Iteration:  1482
 C         0.009896         0.282686         0.131760
 C         1.516946         0.064138         0.115576
 C         2.085777        -0.657236         1.324608
 O         3.179991        -1.387854         1.065011
 C         4.426389        -0.640787         1.216169
 C         4.739616         0.511592         0.316451
 C         3.868160         1.176895        -0.538122
 C         2.422369         0.884360        -0.788411
 O         2.047266        -0.387332        -1.226925
 H        -0.208767         0.810172         1.062288
 H        -0.521609         0.826504        -0.671065
 H        -0.580900        -0.730175         0.070711
 H         2.262349         0.097652         2.140714
 H         1.419545        -1.333640         1.788033
 H         4.551827        -0.272559         2.228644
 H         5.413716        -1.320205         0.943566
 H         5.794535         0.771882         0.211382
 H         4.393033         1.878402        -1.168526
 H         1.952317         1.683932        -1.305566
