19
Iteration:  2061
 C         0.093533         0.294348         0.205298
 C         1.565724         0.021490        -0.000545
 C         2.093123        -0.791090         1.248916
 O         3.262516        -1.433267         1.200746
 C         4.411390        -0.645663         1.302980
 C         4.721375         0.505966         0.241642
 C         3.874818         1.207526        -0.563559
 C         2.454546         0.930581        -0.723963
 O         1.859279        -0.267615        -1.350426
 H        -0.079276         0.773865         1.104537
 H        -0.237563         0.955627        -0.585184
 H        -0.379611        -0.806050         0.268073
 H         2.015015        -0.038116         2.042597
 H         1.507756        -1.678658         1.512345
 H         4.396924        -0.101847         2.264280
 H         5.225577        -1.328144         1.374983
 H         5.762289         0.760026         0.254839
 H         4.260654         2.075339        -1.148259
 H         1.946264         1.794103        -1.180730
