19
Iteration:   585
 C         0.085551         0.324932         0.201060
 C         1.522128        -0.027384        -0.039924
 C         2.089307        -0.722231         1.219710
 O         3.330699        -1.405294         1.387935
 C         4.551950        -0.728206         1.296284
 C         4.670838         0.528746         0.289443
 C         3.824323         1.137211        -0.505551
 C         2.350881         0.922299        -0.817492
 O         1.851195        -0.251079        -1.509842
 H        -0.068813         0.824294         1.236425
 H        -0.209528         1.132077        -0.454120
 H        -0.575725        -0.612290         0.062288
 H         2.053613        -0.026018         2.096801
 H         1.483914        -1.518334         1.572005
 H         4.830890        -0.328312         2.338045
 H         5.523267        -1.455982         1.138501
 H         5.698639         0.836299         0.371063
 H         4.350902         2.028936        -1.042652
 H         1.801237         1.865084        -1.050493
