19
Iteration:  1677
 C         0.159663         0.376967         0.340053
 C         1.568999         0.105495         0.119457
 C         2.026017        -0.935659         1.147978
 O         3.296088        -1.363379         1.047679
 C         4.390195        -0.502216         1.404145
 C         4.675401         0.529601         0.341586
 C         3.938392         1.099888        -0.616390
 C         2.393841         0.878686        -0.807335
 O         1.914196        -0.355163        -1.374187
 H         0.108479         1.332559         0.757945
 H        -0.502631         0.393063        -0.528364
 H        -0.434775        -0.323231         1.041488
 H         1.817071        -0.404714         2.097162
 H         1.300714        -1.833086         1.021295
 H         4.151599        -0.040069         2.371978
 H         5.214542        -1.046707         1.666528
 H         5.758167         0.694537         0.246480
 H         4.427128         1.729636        -1.323040
 H         1.911909         1.831687        -1.243479
