19
Iteration:  4154
 C         0.041854         0.326329         0.348500
 C         1.518213         0.040520        -0.011732
 C         2.006092        -1.045211         0.970609
 O         3.371861        -1.460863         0.946974
 C         4.405752        -0.624292         1.367884
 C         4.736281         0.497411         0.427110
 C         3.929447         1.071880        -0.460671
 C         2.410232         1.049858        -0.586653
 O         1.924146        -0.046219        -1.373472
 H        -0.483623         0.238766        -0.649789
 H        -0.423633        -0.436417         0.927700
 H        -0.087024         1.292495         0.834809
 H         1.772513        -0.599808         1.961831
 H         1.399100        -1.999654         0.880559
 H         4.101773        -0.216789         2.279656
 H         5.240052        -1.279336         1.487416
 H         5.765440         0.936705         0.419560
 H         4.361418         1.755904        -1.217294
 H         1.992321         2.100644        -0.725356
