19
Iteration:  2473
 C        -0.003775         0.394933         0.056868
 C         1.452224         0.044340         0.073155
 C         2.044716        -0.775558         1.338817
 O         3.295447        -1.454718         0.960461
 C         4.469972        -0.709578         1.118837
 C         4.737930         0.540237         0.253031
 C         3.858980         1.329817        -0.324442
 C         2.445458         0.936773        -0.684890
 O         2.006775        -0.456879        -1.149387
 H        -0.603459         0.475350        -1.014840
 H        -0.570186        -0.281353         0.758900
 H        -0.115427         1.389925         0.475691
 H         2.149971        -0.172644         2.251905
 H         1.269019        -1.540203         1.528427
 H         4.790267        -0.438997         2.172223
 H         5.211194        -1.326793         0.720640
 H         5.709783         0.901172         0.351709
 H         4.296933         2.221986        -0.830868
 H         1.906438         1.688735        -1.320482
