19
Iteration:  1680
 C         0.179760         0.404194         0.318361
 C         1.561595         0.092543         0.126416
 C         2.000621        -0.961573         1.124687
 O         3.316467        -1.353645         1.048591
 C         4.355175        -0.509193         1.404391
 C         4.660216         0.527386         0.340451
 C         3.929671         1.100698        -0.641871
 C         2.386883         0.879614        -0.794325
 O         1.936343        -0.355208        -1.339197
 H         0.171159         1.406471         0.795435
 H        -0.488570         0.483932        -0.607159
 H        -0.338352        -0.320207         1.076792
 H         1.870896        -0.429675         2.126285
 H         1.366009        -1.876952         1.004743
 H         4.179149        -0.011042         2.359103
 H         5.266985        -1.078951         1.708345
 H         5.778423         0.763311         0.185291
 H         4.326535         1.756571        -1.344131
 H         1.881394         1.713949        -1.154299
