19
Iteration:  4955
 C         0.089103         0.453140         0.249826
 C         1.546607        -0.033341         0.027873
 C         2.027992        -1.095710         0.989276
 O         3.372568        -1.603350         0.773066
 C         4.328808        -0.671969         1.205554
 C         4.733443         0.603920         0.537680
 C         3.917760         1.277413        -0.324789
 C         2.422055         1.016564        -0.516044
 O         1.902673        -0.145037        -1.301472
 H        -0.175096         0.866877         1.257518
 H        -0.019864         1.309020        -0.516231
 H        -0.661617        -0.389166         0.055127
 H         1.920476        -0.648028         1.962233
 H         1.301268        -1.870399         1.005502
 H         4.058206        -0.228417         2.195674
 H         5.296331        -1.232429         1.469160
 H         5.810457         0.965447         0.625038
 H         4.338376         2.186504        -0.794004
 H         1.886168         1.880737        -0.805674
