19
Iteration:  4945charge 0 multiplicity 1
 C         0.153884         0.454875         0.293099
 C         1.520875        -0.018535         0.033140
 C         2.055795        -1.109211         1.059228
 O         3.358858        -1.561320         0.755554
 C         4.358819        -0.668392         1.304217
 C         4.633887         0.577806         0.510650
 C         3.890548         1.270620        -0.322580
 C         2.456452         0.983740        -0.654086
 O         1.903865        -0.104272        -1.374445
 H         0.189995         0.922399         1.305879
 H        -0.251134         1.227962        -0.441952
 H        -0.674847        -0.350840         0.250025
 H         1.932191        -0.746351         2.111548
 H         1.582724        -2.015434         0.875219
 H         4.064580        -0.545357         2.388741
 H         5.253591        -1.410148         1.290360
 H         5.597514         0.966383         0.942553
 H         4.269401         2.247028        -0.646487
 H         1.935894         1.934668        -0.832189
