19
Iteration:  1102
 C        -0.027944         0.257710         0.036487
 C         1.451910         0.000962         0.027596
 C         2.077220        -0.601590         1.259367
 O         3.312292        -1.313289         1.170823
 C         4.585209        -0.706562         1.253452
 C         4.752572         0.457084         0.367192
 C         3.883157         1.096831        -0.505281
 C         2.403977         0.958986        -0.735638
 O         1.869573        -0.371614        -1.278351
 H        -0.343778         0.790525         0.924313
 H        -0.224307         0.804660        -0.812526
 H        -0.601565        -0.680027         0.058845
 H         2.211919         0.293041         1.916141
 H         1.360172        -1.158987         1.876518
 H         4.852307        -0.677215         2.357387
 H         5.250812        -1.488332         0.876763
 H         5.729948         0.984834         0.446035
 H         4.210686         2.039291        -1.156242
 H         2.071777         1.956536        -1.158318
