19
Iteration:  4162
 C         0.032977         0.304557         0.260838
 C         1.510493        -0.024869         0.085700
 C         2.010298        -1.064016         1.004671
 O         3.332726        -1.406707         0.888104
 C         4.361060        -0.599766         1.408717
 C         4.751540         0.410639         0.322717
 C         3.905460         1.139752        -0.456029
 C         2.457095         1.052403        -0.532723
 O         1.972986        -0.032178        -1.333112
 H        -0.574074         0.301370        -0.669433
 H        -0.449795        -0.340244         1.070110
 H        -0.021080         1.275559         0.679323
 H         1.911720        -0.629554         1.975201
 H         1.429028        -2.100124         0.917450
 H         4.149156        -0.140685         2.446495
 H         5.267593        -1.232966         1.426004
 H         5.714573         0.757469         0.281960
 H         4.390227         1.909765        -1.135880
 H         1.892743         2.074717        -0.961204
