19
Iteration:  3256
 C        -0.008312         0.275424         0.270139
 C         1.496896         0.046759         0.086534
 C         2.003237        -0.990317         1.076332
 O         3.346995        -1.418119         0.751155
 C         4.405221        -0.605050         1.271229
 C         4.810912         0.545861         0.442978
 C         3.983036         1.125073        -0.428680
 C         2.464711         1.040997        -0.521444
 O         1.851219        -0.190457        -1.304185
 H        -0.270645         1.301161        -0.167847
 H        -0.603801        -0.478933        -0.115256
 H        -0.209312         0.468849         1.307889
 H         1.962493        -0.440892         2.104394
 H         1.343744        -1.931180         1.196923
 H         4.141149        -0.240470         2.260407
 H         5.295891        -1.340609         1.439859
 H         5.851246         0.736322         0.430618
 H         4.473579         1.966802        -1.064011
 H         1.921409         1.905733        -0.877971
