19
Iteration:  3702
 C         0.185767         0.604806         0.381103
 C         1.512690        -0.058102         0.048618
 C         2.044489        -1.105017         1.012119
 O         3.392843        -1.479228         0.767667
 C         4.411300        -0.627061         1.247981
 C         4.559533         0.688329         0.599681
 C         3.868910         1.192805        -0.418670
 C         2.434883         0.883143        -0.712296
 O         1.891546        -0.290829        -1.290079
 H         0.223460         1.624920         0.014365
 H        -0.660208         0.028525        -0.148222
 H        -0.039298         0.758185         1.441926
 H         1.805772        -0.902379         2.141790
 H         1.408713        -1.988505         0.750263
 H         4.421819        -0.562552         2.355898
 H         5.352248        -1.278090         0.953858
 H         5.489598         1.218038         0.937783
 H         4.197501         2.035112        -0.959152
 H         1.984218         1.906648        -1.000123
