19
Iteration:  1748charge 0 multiplicity 1
 C         0.163129         0.465734         0.347114
 C         1.531925         0.018937         0.060816
 C         2.007911        -0.992588         1.079610
 O         3.431616        -1.320523         0.997499
 C         4.273372        -0.387089         1.446537
 C         4.760077         0.597334         0.369746
 C         3.939289         0.914770        -0.690742
 C         2.415103         0.869375        -0.743852
 O         1.816486        -0.361859        -1.294795
 H         0.059561         0.746628         1.493505
 H        -0.266405         1.335022        -0.186595
 H        -0.553078        -0.293211         0.072561
 H         1.741760        -0.615846         2.125717
 H         1.443826        -1.861459         0.838741
 H         3.951339         0.220251         2.270881
 H         5.147514        -0.934832         1.984786
 H         5.846844         0.725829         0.367539
 H         4.491385         1.444417        -1.580086
 H         2.024416         1.782838        -1.024606
