19
Iteration:  4035charge 0 multiplicity 1
 C         0.043926         0.320849         0.245073
 C         1.542155         0.062075         0.047403
 C         2.055268        -1.050673         1.035020
 O         3.405832        -1.502956         0.818223
 C         4.335871        -0.580203         1.399154
 C         4.752289         0.491246         0.425376
 C         3.975133         1.115454        -0.451969
 C         2.435410         1.127594        -0.510820
 O         1.810660        -0.122789        -1.327992
 H        -0.211888         1.336000        -0.293089
 H        -0.575571        -0.488124        -0.197953
 H        -0.221219         0.490666         1.353186
 H         1.951494        -0.837151         2.158921
 H         1.450610        -1.895337         0.918862
 H         3.943305        -0.121910         2.338869
 H         5.256714        -1.157273         1.630277
 H         5.815103         0.462718         0.085699
 H         4.342701         1.830126        -1.246439
 H         2.050848         2.032443        -0.826490
