19
Iteration:  1456
 C         0.133074         0.416814         0.122709
 C         1.581385         0.030254         0.123895
 C         2.033190        -0.795684         1.261115
 O         3.197274        -1.446545         1.099311
 C         4.350698        -0.634581         1.150908
 C         4.654745         0.537497         0.139992
 C         3.814657         1.241497        -0.561298
 C         2.434456         0.981964        -0.711406
 O         2.131267        -0.484396        -1.034186
 H        -0.135359         1.320297         0.732092
 H        -0.207132         0.668672        -0.882790
 H        -0.589684        -0.383554         0.311383
 H         1.943192        -0.297563         2.204269
 H         1.322680        -1.688578         1.404355
 H         4.262508         0.009689         2.079297
 H         5.270325        -1.186812         1.193523
 H         5.696483         0.906853         0.325084
 H         4.218631         2.134227        -1.156164
 H         1.884421         1.540833        -1.510490
