19
Iteration:    26charge 0 multiplicity 1
 C         0.035706         0.515523         0.180302
 C         1.565502         0.119600         0.098469
 C         1.951324        -0.907313         1.234298
 O         3.301975        -1.423680         1.171803
 C         4.516849        -0.646491         1.151486
 C         4.659032         0.598878         0.227154
 C         3.815605         1.242655        -0.520603
 C         2.379967         0.930187        -0.765741
 O         2.056144        -0.511289        -1.104462
 H        -0.082627         1.310776         0.869564
 H        -0.209952         0.966816        -0.964217
 H        -0.658640        -0.253429         0.384296
 H         1.634428        -0.755580         2.212684
 H         1.450830        -1.760880         0.754341
 H         4.856660        -0.430306         2.172503
 H         5.353143        -1.451627         0.714608
 H         5.684897         1.075394         0.276818
 H         4.145809         1.930216        -1.241982
 H         1.954117         1.559601        -1.459978
