19
Iteration:  2882charge 0 multiplicity 1
 C         0.020511         0.364033         0.105070
 C         1.529339         0.059507         0.120761
 C         2.126692        -0.752466         1.240428
 O         3.272144        -1.384107         0.641295
 C         4.533056        -0.816217         1.106257
 C         4.741059         0.606299         0.583983
 C         3.791490         1.184011        -0.223984
 C         2.427685         0.948704        -0.607100
 O         1.886772        -0.368353        -1.231411
 H        -0.145279         1.130368        -0.598776
 H        -0.505554        -0.549732        -0.144915
 H        -0.415645         0.712709         1.048240
 H         2.581091        -0.091301         1.951009
 H         1.357406        -1.349601         1.686666
 H         4.587431        -0.894914         2.135372
 H         5.279194        -1.603159         0.715224
 H         5.623822         1.095602         0.756912
 H         4.110241         2.180642        -0.709487
 H         1.888446         1.751597        -1.265732
