19
Iteration:  3066
 C         0.207133         0.547585         0.411193
 C         1.615495         0.032365         0.035728
 C         2.062767        -1.140118         0.896580
 O         3.401887        -1.553045         0.886934
 C         4.350918        -0.613487         1.346329
 C         4.636366         0.528126         0.486430
 C         3.827142         1.258585        -0.370835
 C         2.423759         0.971984        -0.714298
 O         1.808888        -0.218138        -1.387222
 H        -0.180911         1.119759        -0.380602
 H        -0.445388        -0.297265         0.691873
 H         0.254487         1.198266         1.328832
 H         1.804754        -0.973194         1.970256
 H         1.362978        -1.980664         0.517340
 H         4.125373        -0.212074         2.406716
 H         5.337913        -1.094284         1.463977
 H         5.574162         1.004075         0.665824
 H         4.327092         2.079776        -0.942575
 H         1.928672         1.940235        -0.781184
