19
Iteration:  2435
 C         0.096060         0.247999         0.131073
 C         1.588684         0.065688         0.051920
 C         2.067654        -0.703820         1.353542
 O         3.260008        -1.450616         1.171541
 C         4.465229        -0.743327         1.153700
 C         4.575194         0.444407         0.290329
 C         3.778565         1.226654        -0.458701
 C         2.391117         1.074663        -0.764155
 O         2.047286        -0.269443        -1.327922
 H        -0.347196         0.997731        -0.391302
 H        -0.339518        -0.725840        -0.127721
 H         0.017558         0.417416         1.263540
 H         2.086161         0.027644         2.188854
 H         1.284520        -1.454977         1.633736
 H         4.896056        -0.645152         2.244657
 H         5.155403        -1.560454         0.627555
 H         5.715006         0.729510         0.460999
 H         4.135349         2.004709        -1.125375
 H         1.873104         1.858150        -1.320404
