19
Iteration:  2575charge 0 multiplicity 1
 C         0.096335         0.440000         0.279188
 C         1.572639         0.039997         0.065520
 C         2.064226        -0.970148         1.116997
 O         3.326082        -1.599671         1.061250
 C         4.435986        -0.586853         1.304476
 C         4.632128         0.566301         0.307385
 C         3.824680         1.243604        -0.443196
 C         2.415765         0.950607        -0.716888
 O         1.967199        -0.254040        -1.348692
 H        -0.470103        -0.266648         1.052629
 H        -0.057688         1.502561         0.693374
 H        -0.439612         0.509272        -0.810156
 H         1.903202        -0.440804         2.071378
 H         1.266596        -1.679970         0.997533
 H         4.338607        -0.115592         2.375318
 H         5.357743        -1.158993         1.178088
 H         5.765654         0.853736         0.278288
 H         4.244720         1.937012        -1.165822
 H         1.845337         1.780743        -0.991929
