19
Iteration:  2827
 C         0.139261         0.276937         0.179110
 C         1.599725         0.008146         0.043053
 C         1.963177        -0.955800         1.165066
 O         3.288699        -1.556811         1.091390
 C         4.392736        -0.789958         1.063053
 C         4.610212         0.449110         0.274007
 C         3.798114         1.425261        -0.339172
 C         2.379234         1.123355        -0.526948
 O         2.115324        -0.118929        -1.328142
 H        -0.287325         0.452768        -0.775810
 H        -0.459819        -0.547592         0.669431
 H         0.069382         1.197497         0.838172
 H         1.835180        -0.444571         2.181238
 H         1.217314        -1.723399         1.232564
 H         4.695494        -0.511295         2.115521
 H         5.240922        -1.535613         0.838112
 H         5.627338         0.629710         0.228456
 H         4.292651         2.353541        -0.835832
 H         1.663702         1.970451        -0.958657
