19
Iteration:  1662
 C        -0.010970         0.319964         0.378310
 C         1.545067         0.043789        -0.035495
 C         2.041580        -0.767003         1.183514
 O         3.353415        -1.443586         1.074823
 C         4.369615        -0.502135         1.391978
 C         4.782391         0.503198         0.364489
 C         3.925653         1.041313        -0.532997
 C         2.498331         0.913379        -0.841178
 O         1.825407        -0.291067        -1.389542
 H        -0.306572         1.335395         0.825251
 H        -0.458432         0.204528        -0.587013
 H        -0.182125        -0.433746         1.041447
 H         2.023166        -0.252810         2.158051
 H         1.427671        -1.631152         1.215963
 H         4.237462         0.033402         2.403900
 H         5.319579        -1.200949         1.505867
 H         5.768826         0.923636         0.332026
 H         4.393767         1.795942        -1.344542
 H         2.038309         1.818243        -1.381350
