19
Iteration:  4097charge 0 multiplicity 1
 C         0.245058         0.588637         0.442731
 C         1.524741         0.055200         0.022237
 C         2.060270        -1.124895         0.923016
 O         3.424351        -1.522100         0.785303
 C         4.256917        -0.568047         1.406553
 C         4.626621         0.661668         0.528719
 C         3.810654         1.139191        -0.408331
 C         2.458151         0.867205        -0.661688
 O         1.903203        -0.280319        -1.417305
 H         0.166302         1.590102         0.025655
 H        -0.631297        -0.082509         0.359283
 H         0.344577         0.858077         1.444712
 H         1.882686        -0.820787         1.944245
 H         1.308509        -2.039764         0.734425
 H         3.896153        -0.401781         2.399762
 H         5.149780        -1.091131         1.615514
 H         5.580263         1.019712         0.660820
 H         4.281116         1.948147        -1.034550
 H         1.939522         1.896217        -1.050378
