19
Iteration:  3056
 C         0.168166         0.458120         0.398869
 C         1.596235         0.029219         0.042046
 C         2.016318        -1.094419         0.926042
 O         3.374622        -1.563521         0.851115
 C         4.360753        -0.579253         1.331369
 C         4.671630         0.589538         0.476682
 C         3.910493         1.190762        -0.388892
 C         2.456934         1.000111        -0.656840
 O         1.804872        -0.165060        -1.357603
 H        -0.324393         0.815783        -0.412782
 H        -0.370478        -0.423111         0.623788
 H         0.084034         1.163048         1.201040
 H         1.727101        -0.717833         2.002093
 H         1.424029        -2.071399         0.757499
 H         4.068084        -0.317299         2.309046
 H         5.260646        -1.235682         1.429068
 H         5.703251         0.896012         0.614053
 H         4.445562         1.960496        -0.961526
 H         1.889223         1.930690        -0.978027
