19
Iteration:  2311charge 0 multiplicity 1
 C         0.244521         0.496865         0.338973
 C         1.551231         0.009712        -0.012442
 C         2.068462        -0.821122         1.150573
 O         3.366996        -1.437341         1.099292
 C         4.430581        -0.516844         1.364067
 C         4.545997         0.585936         0.398968
 C         3.811819         1.080040        -0.525110
 C         2.379919         0.866168        -0.847657
 O         1.889380        -0.432020        -1.392295
 H         0.399062         0.864615         1.412119
 H        -0.033144         1.313836        -0.317228
 H        -0.519981        -0.247780         0.330614
 H         1.898315        -0.323295         2.112838
 H         1.411405        -1.690871         1.127190
 H         4.331224        -0.167266         2.381448
 H         5.384940        -1.166401         1.333414
 H         5.541615         0.972175         0.280204
 H         4.318349         1.742652        -1.207602
 H         1.718451         1.666536        -1.136576
