19
Iteration:   440charge 0 multiplicity 1
 C         0.297204         0.405976         0.328180
 C         1.688627         0.009181         0.028817
 C         2.122122        -0.841224         1.206869
 O         3.322394        -1.526967         1.232435
 C         4.249121        -0.510493         1.280711
 C         4.571258         0.526840         0.271403
 C         3.794215         1.238344        -0.626987
 C         2.460000         0.890939        -0.881767
 O         1.842829        -0.390905        -1.300253
 H         0.000228         0.948832         1.236628
 H         0.002665         1.207210        -0.468144
 H        -0.437548        -0.383598         0.200018
 H         2.004097        -0.281495         2.220514
 H         1.314768        -1.545050         1.331599
 H         4.039782         0.028320         2.199344
 H         5.310085        -0.974138         1.555281
 H         5.632292         0.791885         0.256426
 H         4.334535         1.993594        -1.348484
 H         1.908630         1.724552        -1.341264
