19
Iteration:   704
 C         0.114530         0.466194         0.189151
 C         1.606903        -0.000064        -0.005457
 C         2.124503        -0.793741         1.168275
 O         3.364607        -1.479644         1.236956
 C         4.502333        -0.622753         1.365456
 C         4.612868         0.584327         0.362810
 C         3.790049         1.111355        -0.530388
 C         2.383805         0.873155        -0.773047
 O         1.806225        -0.348746        -1.429016
 H         0.053197         1.466291         0.720031
 H        -0.262688         0.631567        -0.863794
 H        -0.445274        -0.397457         0.656775
 H         2.056675         0.100590         1.932011
 H         1.414188        -1.633842         1.537152
 H         4.647785        -0.239220         2.359874
 H         5.317909        -1.312138         1.191324
 H         5.638066         0.967678         0.398756
 H         4.336279         1.865762        -1.085968
 H         1.831028         1.845107        -1.052785
