19
Iteration:  3325charge 0 multiplicity 1
 C         0.188334         0.551954         0.421055
 C         1.534153         0.003479         0.048360
 C         2.080676        -1.001374         1.058196
 O         3.319623        -1.605117         0.824483
 C         4.417922        -0.708268         1.141558
 C         4.516009         0.656678         0.526644
 C         3.819798         1.377944        -0.344742
 C         2.426078         0.903880        -0.714621
 O         2.008138        -0.338027        -1.374341
 H        -0.168687         1.120482        -0.375476
 H        -0.533428        -0.210868         0.621856
 H         0.211563         1.227292         1.158443
 H         2.138578        -0.623154         2.129002
 H         1.226941        -1.789809         1.143304
 H         4.383770        -0.497904         2.170203
 H         5.360477        -1.349362         0.973464
 H         5.447779         1.010375         1.029127
 H         4.041771         2.434917        -0.455796
 H         1.798892         1.817963        -1.206912
