19
Iteration:  1159
 C         0.144136         0.414085         0.271785
 C         1.588762         0.044019        -0.000357
 C         2.016541        -0.729963         1.218475
 O         3.225826        -1.400750         0.977398
 C         4.349811        -0.596788         1.236566
 C         4.680553         0.599651         0.394783
 C         3.837422         1.170821        -0.523788
 C         2.477225         0.870941        -0.802344
 O         1.993627        -0.545393        -1.198780
 H         0.128981         1.224485         1.063107
 H        -0.348945         0.903509        -0.589488
 H        -0.546041        -0.388073         0.514514
 H         2.164148        -0.167363         2.140432
 H         1.395827        -1.582826         1.248689
 H         4.233286        -0.167239         2.297167
 H         5.348733        -1.095219         1.267335
 H         5.689151         1.011715         0.550988
 H         4.256487         1.970992        -1.082597
 H         1.976859         1.614924        -1.369641
