19
Iteration:  1435
 C         0.096376         0.536847         0.094612
 C         1.544733         0.058335         0.150417
 C         1.956199        -0.879002         1.291535
 O         3.338599        -1.445195         1.126379
 C         4.428664        -0.575492         1.253430
 C         4.668513         0.527200         0.151041
 C         3.802298         1.233974        -0.503652
 C         2.416573         0.883573        -0.758978
 O         2.034805        -0.477886        -1.181503
 H         0.040816         1.567467         0.554310
 H        -0.224333         0.483172        -0.941225
 H        -0.593523        -0.254137         0.503997
 H         1.782143        -0.536087         2.304949
 H         1.305056        -1.817083         1.227258
 H         4.478586        -0.056014         2.243199
 H         5.467497        -1.213069         1.241564
 H         5.762022         0.782746         0.102348
 H         4.089080         2.195563        -1.087121
 H         1.905339         1.655295        -1.357064
