19
Iteration:  3683
 C         0.041338         0.619810         0.328053
 C         1.499375         0.071538         0.135412
 C         2.080573        -1.105810         0.991803
 O         3.443900        -1.424219         0.609832
 C         4.418925        -0.638153         1.341204
 C         4.663444         0.677002         0.585774
 C         3.842126         1.105828        -0.368386
 C         2.392954         0.843716        -0.628921
 O         1.894941        -0.328427        -1.296680
 H        -0.066481         1.662332        -0.291190
 H        -0.663326        -0.064947        -0.020984
 H         0.049004         0.753379         1.456058
 H         2.110913        -0.773344         2.026938
 H         1.470847        -1.970528         0.910589
 H         4.054890        -0.477963         2.321986
 H         5.340181        -1.317492         1.308778
 H         5.754985         1.077612         0.722110
 H         4.227214         1.986114        -0.905976
 H         1.980685         1.747637        -1.127605
