19
Iteration:  4277charge 0 multiplicity 1
 C         0.104077         0.385217         0.313208
 C         1.531888         0.059012        -0.008331
 C         2.113492        -0.897086         1.102253
 O         3.387090        -1.562500         0.758482
 C         4.486105        -0.789570         1.284477
 C         4.620281         0.589957         0.682269
 C         3.856003         1.183497        -0.210877
 C         2.427450         0.951117        -0.756722
 O         1.789745        -0.118691        -1.489570
 H        -0.335898        -0.382363         0.903547
 H         0.108664         1.367316         0.828909
 H        -0.574013         0.555451        -0.589931
 H         2.242696        -0.254009         1.980565
 H         1.407238        -1.706856         1.187461
 H         4.344566        -0.781380         2.427529
 H         5.364196        -1.439514         1.039763
 H         5.700291         1.116593         0.766275
 H         4.225508         2.112314        -0.623652
 H         1.957339         1.994744        -1.071829
