19
Iteration:  1396charge 0 multiplicity 1
 C         0.071140         0.394008         0.297082
 C         1.498799         0.034877        -0.053412
 C         2.053690        -0.746921         1.196945
 O         3.372073        -1.360742         1.013458
 C         4.497962        -0.499239         1.424116
 C         4.698561         0.577529         0.427343
 C         3.909412         0.908518        -0.574695
 C         2.452435         0.806108        -0.736154
 O         1.789321        -0.338244        -1.385325
 H        -0.082232         1.327385         0.811591
 H        -0.362323         0.502499        -0.700685
 H        -0.394113        -0.456965         0.885430
 H         2.042397         0.066991         1.981960
 H         1.378046        -1.564966         1.351311
 H         4.329009        -0.188812         2.501157
 H         5.260112        -1.210437         1.527836
 H         5.638657         1.092428         0.401016
 H         4.257152         1.678904        -1.258571
 H         2.110132         1.704307        -1.289485
