19
Iteration:  3370
 C        -0.054222         0.313561         0.221908
 C         1.544421         0.091066         0.073113
 C         2.057373        -0.902524         1.101279
 O         3.365425        -1.519893         0.897645
 C         4.471136        -0.798522         1.178006
 C         4.704069         0.487649         0.359304
 C         3.823390         1.284061        -0.322662
 C         2.429244         1.082832        -0.576381
 O         1.975026        -0.178135        -1.291638
 H        -0.476466         0.314970        -0.694518
 H        -0.504669        -0.508261         0.785333
 H        -0.376476         1.218314         0.606253
 H         1.938803        -0.414771         2.151395
 H         1.358451        -1.806509         1.166243
 H         4.560994        -0.534852         2.157799
 H         5.342822        -1.490421         0.933015
 H         5.775037         0.900150         0.471761
 H         4.233145         2.143452        -0.747904
 H         1.944690         2.122092        -0.902222
