19
Iteration:  4469charge 0 multiplicity 1
 C         0.168779         0.618371         0.295619
 C         1.615796         0.069007         0.198705
 C         1.988892        -1.291149         0.906316
 O         3.354615        -1.525993         0.709409
 C         4.252691        -0.601486         1.237887
 C         4.712026         0.575727         0.457904
 C         3.830116         1.328305        -0.271976
 C         2.461280         0.953920        -0.546888
 O         1.946086        -0.256573        -1.293539
 H        -0.440626        -0.061477         1.039274
 H         0.307732         1.681141         0.483540
 H        -0.368117         0.346961        -0.719401
 H         2.021297        -1.054151         1.980255
 H         1.428970        -2.056168         0.460043
 H         3.795673        -0.294451         2.252243
 H         5.184957        -1.333866         1.486105
 H         5.723115         0.997660         0.719760
 H         4.245217         2.208509        -0.732725
 H         1.883588         1.724988        -0.919416
