19
Iteration:  4104
 C         0.246091         0.570003         0.430595
 C         1.571289         0.009564        -0.007171
 C         2.085521        -1.092410         0.954126
 O         3.411951        -1.525098         0.809949
 C         4.310906        -0.558538         1.413542
 C         4.595392         0.592688         0.570829
 C         3.846472         1.099266        -0.430785
 C         2.406572         0.905336        -0.718510
 O         1.849017        -0.218554        -1.430684
 H        -0.006693         1.485616        -0.080942
 H        -0.594319        -0.163954         0.380219
 H         0.470440         0.864359         1.525030
 H         1.797248        -0.844595         2.008350
 H         1.442489        -1.930595         0.705223
 H         3.857070        -0.295318         2.405453
 H         5.274041        -1.149097         1.637916
 H         5.554009         1.182774         0.682294
 H         4.213683         2.031886        -0.787921
 H         2.015309         1.871160        -1.071066
