19
Iteration:   980charge 0 multiplicity 1
 C        -0.062488         0.330613         0.226547
 C         1.406757         0.061058        -0.041501
 C         2.140239        -0.530090         1.196528
 O         3.377072        -1.350772         1.078005
 C         4.577102        -0.698270         1.293403
 C         4.694506         0.495910         0.521602
 C         3.840899         1.050838        -0.441917
 C         2.432939         0.805567        -0.816362
 O         1.895925        -0.401709        -1.418854
 H        -0.178459         1.132124         0.986362
 H        -0.596040         0.677144        -0.675268
 H        -0.614576        -0.556727         0.603286
 H         2.410694         0.307852         1.925101
 H         1.470598        -1.157463         1.824770
 H         4.623983        -0.404413         2.327985
 H         5.387332        -1.412879         1.151636
 H         5.533209         1.053348         0.419173
 H         4.192902         1.966493        -0.998217
 H         1.987464         1.709443        -1.334119
