19
Iteration:  4241charge 0 multiplicity 1
 C         0.090784         0.312917         0.232738
 C         1.530936         0.035306         0.012748
 C         2.013717        -0.901946         1.011603
 O         3.321205        -1.560072         0.927513
 C         4.418294        -0.705642         1.257107
 C         4.732995         0.502220         0.382256
 C         3.843688         1.203314        -0.335840
 C         2.405910         1.074221        -0.516012
 O         1.965473        -0.096533        -1.327741
 H        -0.498364        -0.656272         0.119176
 H        -0.057114         0.643730         1.221317
 H        -0.339593         0.999332        -0.520815
 H         1.762335        -0.618439         2.015025
 H         1.328039        -1.843713         0.818524
 H         4.450144        -0.441816         2.411859
 H         5.322681        -1.298177         1.213879
 H         5.820706         0.787664         0.303984
 H         4.266222         2.054998        -0.874772
 H         1.869001         2.108992        -0.801618
