19
Iteration:  4034charge 0 multiplicity 1
 C         0.038919         0.316636         0.243211
 C         1.542394         0.060996         0.035115
 C         2.058321        -1.050668         1.035842
 O         3.411610        -1.501377         0.826937
 C         4.341093        -0.588966         1.398848
 C         4.752436         0.486270         0.418792
 C         3.976710         1.112475        -0.452657
 C         2.425454         1.134395        -0.507274
 O         1.812633        -0.110502        -1.328767
 H        -0.221741         1.336638        -0.275973
 H        -0.573995        -0.525853        -0.191314
 H        -0.191809         0.500981         1.327156
 H         1.948271        -0.815916         2.161706
 H         1.416540        -1.915546         0.960631
 H         3.944629        -0.110391         2.396456
 H         5.237782        -1.160211         1.623480
 H         5.780468         0.466349         0.100508
 H         4.332793         1.814092        -1.262810
 H         2.062443         2.023090        -0.837142
