19
Iteration:  4729
 C         0.056735         0.537201         0.288056
 C         1.468405         0.003160         0.070687
 C         2.001450        -1.018579         1.071678
 O         3.330448        -1.430276         0.646813
 C         4.418368        -0.782997         1.202401
 C         4.646591         0.612668         0.590424
 C         3.874240         1.245050        -0.344201
 C         2.472645         0.896390        -0.582546
 O         2.060803        -0.249815        -1.261966
 H        -0.744299        -0.267558         0.572956
 H        -0.033487         1.260709         1.118929
 H        -0.400797         0.999173        -0.652329
 H         1.925558        -0.713428         2.166097
 H         1.406022        -1.958114         0.657254
 H         4.129401        -0.577352         2.303456
 H         5.317590        -1.392857         1.101061
 H         5.643380         1.101451         1.022597
 H         4.189491         2.216529        -0.750583
 H         1.997727         1.768198        -1.222931
