19
Iteration:   456
 C         0.154234         0.483508         0.350481
 C         1.591584         0.054029        -0.009350
 C         2.076025        -0.876152         1.171388
 O         3.341100        -1.525111         1.278818
 C         4.435405        -0.550814         1.350819
 C         4.604060         0.555620         0.340412
 C         3.843502         1.162200        -0.680532
 C         2.396309         0.917567        -0.925529
 O         1.876485        -0.403518        -1.381539
 H         0.289976         0.939494         1.338662
 H        -0.350249         1.038504        -0.391599
 H        -0.407782        -0.463849         0.569297
 H         1.976935        -0.174410         2.042992
 H         1.310913        -1.699772         1.293057
 H         4.379432        -0.001461         2.392381
 H         5.316645        -1.096384         1.288014
 H         5.601661         1.016499         0.501924
 H         4.306138         2.080588        -1.136917
 H         1.825019         1.727131        -1.388244
