19
Iteration:  3207charge 0 multiplicity 1
 C         0.121493         0.285645         0.192572
 C         1.593559         0.011275         0.006955
 C         2.091668        -1.119196         1.068148
 O         3.363475        -1.675887         1.171870
 C         4.299843        -0.593737         1.289434
 C         4.643561         0.373696         0.093407
 C         3.844292         1.345482        -0.480174
 C         2.413887         1.174610        -0.462755
 O         1.986820         0.054956        -1.295585
 H        -0.210489         1.063305        -0.503307
 H        -0.465965        -0.771176         0.010421
 H        -0.145853         0.796545         1.281291
 H         1.649589        -0.757437         2.137275
 H         1.479388        -2.022281         0.908980
 H         4.057199         0.053805         2.097633
 H         5.133817        -1.125588         1.578028
 H         5.745941         0.385946        -0.097337
 H         4.256015         2.013917        -1.176807
 H         1.748479         2.040805        -0.702911
