19
Iteration:  2053
 C         0.099799         0.235027         0.231754
 C         1.533431         0.010639        -0.010651
 C         2.045327        -0.765233         1.276066
 O         3.289405        -1.423346         1.210725
 C         4.474707        -0.655168         1.270929
 C         4.717898         0.487660         0.295323
 C         3.861146         1.136109        -0.557898
 C         2.392764         0.978236        -0.736760
 O         1.908438        -0.221861        -1.402797
 H        -0.113136         0.820264         1.157818
 H        -0.259380         0.792184        -0.625321
 H        -0.385064        -0.718636         0.058806
 H         2.157635         0.088569         1.953440
 H         1.228560        -1.424233         1.735533
 H         4.449006        -0.077328         2.348654
 H         5.309253        -1.324603         1.309167
 H         5.732022         0.684376         0.186458
 H         4.298454         1.811174        -1.265184
 H         1.859262         2.013224        -0.970054
