19
Iteration:  2237
 C         0.044345         0.384625         0.166365
 C         1.513279         0.036418         0.209750
 C         2.025630        -1.042067         1.162899
 O         3.411600        -1.295699         0.979261
 C         4.261972        -0.264184         1.421871
 C         4.776492         0.372403         0.180843
 C         3.912127         0.947802        -0.726840
 C         2.440392         0.946408        -0.535379
 O         1.985963        -0.235762        -1.194879
 H        -0.072568         0.683736         1.165539
 H        -0.267118         1.122814        -0.548179
 H        -0.779624        -0.474382        -0.055158
 H         1.795012        -0.847010         2.255071
 H         1.508715        -1.966211         0.843890
 H         3.711475         0.466346         2.193316
 H         5.106521        -0.828653         1.897017
 H         5.813130         0.215630        -0.122852
 H         4.239050         1.325911        -1.695939
 H         1.849170         1.707787        -0.989293
