19
Iteration:  1253
 C         0.004260         0.204312         0.385102
 C         1.525986         0.043668        -0.022341
 C         1.992642        -0.731662         1.093843
 O         3.318501        -1.325569         1.035764
 C         4.345981        -0.459112         1.460592
 C         4.783064         0.518242         0.337158
 C         3.995761         0.848486        -0.624743
 C         2.542434         0.902348        -0.706315
 O         1.849642        -0.209022        -1.381783
 H        -0.120423         0.700509         1.332859
 H        -0.688468         0.638231        -0.293478
 H        -0.382698        -0.895960         0.469818
 H         2.100553         0.003911         1.857972
 H         1.356040        -1.630738         1.251205
 H         4.057189         0.066593         2.389077
 H         5.137914        -1.069735         1.847881
 H         5.859464         0.783951         0.179093
 H         4.378302         1.477784        -1.589843
 H         2.274980         2.037964        -0.953016
