19
Iteration:  1308charge 0 multiplicity 1
 C         0.130200         0.582530         0.102550
 C         1.524690        -0.045679         0.125869
 C         2.010950        -1.025358         1.166841
 O         3.434678        -1.460098         1.198623
 C         4.295590        -0.387903         1.339822
 C         4.746550         0.504886         0.151668
 C         3.862372         1.087799        -0.623917
 C         2.399173         0.931381        -0.617381
 O         1.922593        -0.377374        -1.238321
 H        -0.272411         0.813410         1.075020
 H         0.146607         1.446039        -0.495446
 H        -0.649727        -0.177189        -0.259252
 H         1.839407        -0.793829         2.182620
 H         1.452195        -1.962152         1.035520
 H         3.910608         0.313224         2.135206
 H         5.227634        -0.728097         1.574189
 H         5.829775         0.597319         0.161154
 H         4.290873         1.685835        -1.532681
 H         1.824501         1.896177        -0.936303
