19
Iteration:  3985
 C         0.102139         0.170631         0.185372
 C         1.564454         0.002513        -0.088593
 C         2.029052        -1.006455         1.084232
 O         3.287037        -1.552221         1.182683
 C         4.459257        -0.714146         1.275539
 C         4.721370         0.334950         0.232636
 C         3.934037         1.300810        -0.367959
 C         2.380409         1.181808        -0.520482
 O         1.864045         0.105821        -1.403385
 H        -0.417972         0.631538        -0.577531
 H        -0.249515        -0.839044         0.280906
 H        -0.139151         0.730741         1.075810
 H         1.800975        -0.552313         2.055588
 H         1.338974        -1.969162         1.218990
 H         4.495872        -0.092366         2.346752
 H         5.333689        -1.426405         1.209058
 H         5.804367         0.673244         0.074226
 H         4.351939         1.967173        -1.087398
 H         1.917449         2.258550        -0.633702
