19
Iteration:  2085charge 0 multiplicity 1
 C         0.055634         0.499636         0.243764
 C         1.519849         0.119644         0.068127
 C         1.991582        -0.945024         1.176462
 O         3.329079        -1.449888         1.038836
 C         4.436351        -0.548613         1.281140
 C         4.712808         0.557972         0.277425
 C         3.857560         1.154498        -0.535604
 C         2.425098         0.915830        -0.798124
 O         1.988874        -0.447790        -1.170026
 H        -0.163155         1.047790         1.148784
 H        -0.129972         1.138448        -0.597082
 H        -0.492564        -0.478446         0.209688
 H         1.816830        -0.498802         2.124641
 H         1.492580        -1.926572         1.142596
 H         4.224232         0.062596         2.206126
 H         5.277356        -1.130525         1.512260
 H         5.701590         0.853321         0.333108
 H         4.279149         1.939237        -1.138610
 H         1.867734         1.772841        -1.356375
