19
Iteration:   718
 C         0.171609         0.368759         0.325539
 C         1.524625        -0.036358        -0.080549
 C         2.071406        -0.731852         1.202626
 O         3.339106        -1.414275         1.167186
 C         4.500598        -0.611482         1.400193
 C         4.682564         0.540064         0.473076
 C         3.829870         1.058297        -0.563407
 C         2.378105         0.900580        -0.868244
 O         1.829146        -0.295718        -1.490997
 H         0.064720         1.308470         0.892709
 H        -0.532392         0.399334        -0.623151
 H        -0.318709        -0.389144         0.986316
 H         2.088806         0.040038         2.052173
 H         1.276998        -1.368613         1.457701
 H         4.465105        -0.274191         2.449815
 H         5.472468        -1.282138         1.333927
 H         5.671035         1.024206         0.438336
 H         4.212722         1.763541        -1.169449
 H         1.943944         1.748102        -1.273435
