19
Iteration:  4900charge 0 multiplicity 1
 C         0.136760         0.492360         0.458415
 C         1.530293         0.060755        -0.076981
 C         2.064151        -1.095001         0.869799
 O         3.441897        -1.560425         0.697453
 C         4.347329        -0.713091         1.360151
 C         4.578197         0.648378         0.700522
 C         3.912089         1.254688        -0.286987
 C         2.519579         0.964672        -0.686439
 O         1.801607        -0.220188        -1.437972
 H         0.338888         1.429804         1.047120
 H        -0.779981         0.863245        -0.194529
 H        -0.332534        -0.232905         1.178799
 H         1.960925        -0.579760         1.886408
 H         1.397951        -1.921706         0.798698
 H         4.183623        -0.593282         2.502609
 H         5.245852        -1.457881         1.334704
 H         5.488843         1.155970         1.162625
 H         4.357568         2.218982        -0.605982
 H         2.127671         1.721553        -1.304218
