19
Iteration:  1472
 C         0.030270         0.331682         0.117245
 C         1.533134         0.081651         0.100723
 C         1.979240        -0.718510         1.410479
 O         3.232369        -1.462757         1.029292
 C         4.394086        -0.592282         1.212043
 C         4.669964         0.541326         0.225040
 C         3.916257         1.255832        -0.569503
 C         2.428556         0.908536        -0.781113
 O         2.126019        -0.449525        -1.169389
 H        -0.228810         0.965813         0.971056
 H        -0.394400         0.901047        -0.765335
 H        -0.537328        -0.610870         0.436956
 H         2.213656        -0.013671         2.274284
 H         1.220652        -1.413210         1.674901
 H         4.479953        -0.265845         2.244160
 H         5.219195        -1.468942         1.046424
 H         5.743666         0.605614         0.188892
 H         4.322725         2.013502        -1.175564
 H         1.757115         1.651318        -1.189795
