19
Iteration:  2999charge 0 multiplicity 1
 C        -0.041411         0.228244         0.078644
 C         1.514127         0.058086         0.113336
 C         2.048384        -0.912508         1.128736
 O         3.328831        -1.442550         0.828050
 C         4.464046        -0.664612         1.285877
 C         4.821329         0.374028         0.228951
 C         3.946376         1.186828        -0.302622
 C         2.376514         1.138178        -0.475715
 O         1.913545        -0.124739        -1.220777
 H        -0.382436         0.763081        -0.875863
 H        -0.550665        -0.729755         0.390584
 H        -0.245524         0.864106         1.009341
 H         1.828737        -0.436894         2.170287
 H         1.375256        -1.835577         0.963801
 H         4.328857        -0.148153         2.205001
 H         5.221289        -1.394415         1.473014
 H         5.833080         0.599251         0.006723
 H         4.354098         1.970365        -1.065189
 H         1.755879         2.002861        -0.640423
