19
Iteration:   271
 C        -0.006440         0.510513         0.176583
 C         1.458936         0.018996         0.114625
 C         2.097957        -0.856677         1.259009
 O         3.379809        -1.371919         0.940940
 C         4.496678        -0.572216         1.319107
 C         4.688532         0.621466         0.375256
 C         3.890614         1.056167        -0.619777
 C         2.417764         0.840161        -0.700658
 O         1.902209        -0.433893        -1.245141
 H        -0.100638         1.424801         0.849053
 H        -0.366319         0.800294        -0.749386
 H        -0.804421        -0.185255         0.592428
 H         2.032141        -0.159542         2.171996
 H         1.394155        -1.703226         1.585787
 H         4.478127        -0.421429         2.465296
 H         5.428571        -1.242492         1.152607
 H         5.677349         0.962019         0.256637
 H         4.216342         1.711204        -1.322267
 H         1.950740         1.750314        -1.184495
