19
Iteration:  2220
 C         0.045713         0.418228         0.248900
 C         1.519629        -0.046172         0.088429
 C         2.014444        -1.054433         1.118101
 O         3.394329        -1.432389         1.115308
 C         4.274282        -0.248376         1.340688
 C         4.832420         0.385032         0.127788
 C         3.912778         1.061720        -0.644523
 C         2.465874         0.980777        -0.540451
 O         1.957315        -0.286490        -1.219696
 H        -0.480749         1.066679         1.060062
 H        -0.192128         1.056993        -0.650969
 H        -0.598109        -0.419152         0.101791
 H         1.758399        -0.576103         2.069527
 H         1.418811        -1.980311         1.069761
 H         3.655099         0.483537         1.749666
 H         4.970595        -0.555428         2.099023
 H         5.921597         0.367557        -0.248755
 H         4.128621         1.553194        -1.638849
 H         1.967289         2.009208        -0.758317
