19
Iteration:  1228charge 0 multiplicity 1
 C         0.022533         0.397318         0.225284
 C         1.536178        -0.020234         0.063781
 C         2.078148        -0.867516         1.216260
 O         3.389220        -1.372033         1.068262
 C         4.424115        -0.495901         1.431135
 C         4.745771         0.499044         0.351771
 C         3.937065         1.020953        -0.570746
 C         2.417551         0.909299        -0.781389
 O         1.785883        -0.292748        -1.387282
 H        -0.096369         1.120664         1.076172
 H        -0.364099         0.949562        -0.714078
 H        -0.733912        -0.444874         0.331451
 H         2.109581        -0.240688         2.115119
 H         1.522129        -1.749354         1.188198
 H         4.155135         0.013865         2.421135
 H         5.339696        -1.094828         1.822811
 H         5.838031         0.736041         0.206017
 H         4.335757         1.678961        -1.279867
 H         2.099220         1.819352        -1.256481
