19
Iteration:  3212
 C         0.091257         0.288504         0.207806
 C         1.599383        -0.015270         0.025778
 C         2.082676        -1.090864         1.107388
 O         3.360831        -1.679040         1.155416
 C         4.294338        -0.593458         1.270489
 C         4.643946         0.362320         0.115807
 C         3.856616         1.322880        -0.457251
 C         2.386787         1.225241        -0.517022
 O         2.009925         0.031868        -1.294094
 H        -0.289629         1.034052        -0.508566
 H        -0.389948        -0.586705         0.025552
 H        -0.086990         0.601374         1.197163
 H         1.740974        -0.787010         2.078826
 H         1.484391        -1.973173         0.712078
 H         4.009962         0.098724         2.145897
 H         5.307663        -1.126114         1.527568
 H         5.717544         0.394411        -0.121793
 H         4.294552         2.073280        -1.203961
 H         1.769950         2.108409        -0.623075
