19
Iteration:  4617charge 0 multiplicity 1
 C        -0.057521         0.225393         0.071788
 C         1.537086         0.094615         0.175170
 C         1.967335        -1.006453         1.186137
 O         3.316814        -1.591553         0.865854
 C         4.330863        -0.580183         1.208583
 C         4.814842         0.389847         0.172008
 C         3.967186         1.248469        -0.371381
 C         2.488331         1.114125        -0.465530
 O         2.011455        -0.040549        -1.198351
 H        -0.323249        -0.224353        -0.845657
 H        -0.573941        -0.469193         0.781502
 H        -0.211330         1.256178         0.185105
 H         1.916721        -0.502415         2.172786
 H         1.227359        -1.922293         1.148194
 H         4.004932         0.011143         2.036799
 H         5.121594        -0.998932         1.774149
 H         5.879800         0.507541         0.142275
 H         4.238495         2.050211        -1.019327
 H         1.842867         2.051487        -0.736163
