19
Iteration:  2305
 C         0.230336         0.494630         0.381058
 C         1.547597        -0.000234        -0.011137
 C         2.101529        -0.862443         1.133851
 O         3.353852        -1.397902         1.115781
 C         4.410834        -0.539848         1.423500
 C         4.603693         0.581833         0.386633
 C         3.786930         1.077855        -0.576085
 C         2.352255         0.851925        -0.848334
 O         1.884855        -0.398171        -1.430321
 H         0.455689         0.699785         1.406367
 H        -0.038103         1.323377        -0.284437
 H        -0.616430        -0.305011         0.250914
 H         1.952701        -0.231617         2.055455
 H         1.445688        -1.760181         1.213719
 H         4.334189        -0.097274         2.492699
 H         5.307113        -1.111303         1.320818
 H         5.715953         0.827650         0.469372
 H         4.259734         1.811594        -1.256060
 H         1.906497         1.800137        -1.274087
