19
Iteration:   967
 C         0.055964         0.348615         0.242053
 C         1.536635         0.004108        -0.038608
 C         2.161289        -0.625117         1.250051
 O         3.259785        -1.413720         1.015107
 C         4.473846        -0.658517         1.347781
 C         4.682193         0.598164         0.409914
 C         3.854012         1.073094        -0.471782
 C         2.373895         0.897723        -0.872450
 O         1.913912        -0.426531        -1.322221
 H         0.055826         1.125866         0.929277
 H        -0.552528         0.625462        -0.653053
 H        -0.398365        -0.460657         0.745201
 H         2.350321         0.283596         1.907672
 H         1.348802        -1.262265         1.729222
 H         4.515746        -0.373015         2.396618
 H         5.273332        -1.310730         1.225006
 H         5.616179         0.966900         0.687927
 H         4.300177         1.929211        -0.957039
 H         1.998354         1.724721        -1.465510
