19
Iteration:   410
 C        -0.022604         0.467298         0.249937
 C         1.468976         0.001765         0.083459
 C         2.023807        -0.904020         1.207528
 O         3.351173        -1.329615         1.033307
 C         4.375705        -0.440094         1.318891
 C         4.764942         0.517620         0.199279
 C         3.905616         1.002517        -0.632176
 C         2.461691         0.886493        -0.686692
 O         2.005638        -0.385694        -1.182587
 H        -0.159300         0.775531         1.346206
 H        -0.240134         1.176595        -0.475967
 H        -0.750591        -0.384392         0.071553
 H         1.914272        -0.444582         2.237025
 H         1.459016        -1.838001         1.222738
 H         4.026497         0.144421         2.274062
 H         5.291312        -1.035561         1.559974
 H         5.809360         0.650951         0.070605
 H         4.230208         1.770481        -1.565773
 H         1.923585         1.719363        -1.190287
