19
Iteration:  4038
 C         0.056494         0.344072         0.255037
 C         1.539929         0.063274         0.084862
 C         2.053162        -1.045183         1.034555
 O         3.388247        -1.505326         0.795425
 C         4.326803        -0.558690         1.394897
 C         4.759354         0.501971         0.437456
 C         3.960021         1.130268        -0.453479
 C         2.468355         1.094488        -0.520532
 O         1.809503        -0.152841        -1.323151
 H        -0.173467         1.251862        -0.299107
 H        -0.570988        -0.385798        -0.211900
 H        -0.286791         0.444458         1.344230
 H         1.952598        -0.866624         2.099535
 H         1.476259        -1.933544         0.766861
 H         3.916666        -0.143099         2.224901
 H         5.270964        -1.138038         1.654651
 H         5.869471         0.473790         0.095801
 H         4.382383         1.832343        -1.164226
 H         1.975732         2.108826        -0.822906
