19
Iteration:  1227charge 0 multiplicity 1
 C         0.023925         0.404654         0.221825
 C         1.543954        -0.019684         0.065380
 C         2.077980        -0.873282         1.216015
 O         3.394936        -1.374042         1.070213
 C         4.423365        -0.498083         1.426675
 C         4.746207         0.498894         0.355761
 C         3.925843         1.036483        -0.572738
 C         2.418050         0.907078        -0.784874
 O         1.784731        -0.301108        -1.381167
 H        -0.093414         1.143986         1.071966
 H        -0.335407         0.952112        -0.737054
 H        -0.723076        -0.407349         0.302751
 H         2.071049        -0.234475         2.130570
 H         1.511845        -1.744066         1.165475
 H         4.163928         0.012612         2.429831
 H         5.329676        -1.122945         1.825694
 H         5.815086         0.732284         0.157539
 H         4.304165         1.667364        -1.249551
 H         2.113132         1.797709        -1.218832
