19
Iteration:  4609
 C        -0.023540         0.259610         0.094009
 C         1.504979         0.050153         0.212648
 C         1.925389        -1.024409         1.120540
 O         3.306728        -1.600007         0.859273
 C         4.291398        -0.535392         1.258554
 C         4.839741         0.394131         0.122979
 C         3.973607         1.311077        -0.381238
 C         2.442843         1.079741        -0.408250
 O         2.069420        -0.071423        -1.162735
 H        -0.135686        -0.093463        -0.944105
 H        -0.517613        -0.311697         0.825020
 H        -0.551850         1.253251        -0.003523
 H         2.042645        -0.552837         2.082195
 H         1.275665        -1.925337         1.135500
 H         3.762220         0.126542         2.042089
 H         5.240237        -1.044479         1.484406
 H         5.997879         0.342202        -0.081611
 H         4.358534         1.981169        -1.133871
 H         2.007823         2.023222        -0.733369
