19
Iteration:  2399
 C        -0.061379         0.246286         0.109527
 C         1.438483         0.115428         0.032819
 C         2.122807        -0.674249         1.327985
 O         3.278209        -1.416902         1.073378
 C         4.491632        -0.726926         1.185399
 C         4.763689         0.465656         0.276590
 C         3.859554         1.134171        -0.440396
 C         2.414157         0.956936        -0.687470
 O         1.962796        -0.292961        -1.302229
 H        -0.554181         1.199025         0.129267
 H        -0.471132        -0.391253        -0.628335
 H        -0.365895        -0.325837         1.023684
 H         2.476764         0.201713         1.959861
 H         1.395406        -1.302874         1.899175
 H         4.621757        -0.194574         2.206956
 H         5.344227        -1.491985         1.057948
 H         5.689462         1.043706         0.523135
 H         4.354255         2.030813        -0.875488
 H         2.246305         1.849732        -1.248347
