19
Iteration:  2479charge 0 multiplicity 1
 C        -0.025760         0.432365         0.037235
 C         1.444103         0.054628         0.121174
 C         2.076143        -0.764388         1.341629
 O         3.290223        -1.428360         0.913230
 C         4.497454        -0.677920         1.091877
 C         4.730538         0.536014         0.324473
 C         3.816034         1.270697        -0.326299
 C         2.438738         0.935446        -0.699963
 O         2.008859        -0.486699        -1.152358
 H        -0.415782         0.247557        -0.880834
 H        -0.490466        -0.228320         0.760567
 H        -0.095952         1.485475         0.376744
 H         2.138687        -0.266212         2.332543
 H         1.279867        -1.533851         1.403099
 H         4.631865        -0.429812         2.176193
 H         5.315295        -1.470434         0.757016
 H         5.814668         0.948940         0.243173
 H         4.273157         2.146379        -0.723836
 H         1.979734         1.764018        -1.254573
