19
Iteration:    84
 C         0.010277         0.288567         0.196028
 C         1.494148         0.094017         0.025301
 C         2.168307        -0.564797         1.258286
 O         3.305355        -1.404143         1.011476
 C         4.523900        -0.751337         1.247394
 C         4.620165         0.476377         0.389740
 C         3.784095         1.068468        -0.457348
 C         2.354061         0.957121        -0.836366
 O         2.005239        -0.354727        -1.242918
 H        -0.210754         1.211260         0.893796
 H        -0.415394         0.436282        -0.766484
 H        -0.412696        -0.705038         0.638041
 H         2.424406         0.280745         1.870785
 H         1.428537        -1.122663         1.872779
 H         4.673144        -0.482195         2.316896
 H         5.385436        -1.529343         0.962919
 H         5.673388         0.817835         0.336015
 H         4.190702         2.099081        -0.839240
 H         1.777264         1.781346        -1.417921
