19
Iteration:  1086
 C         0.054790         0.268693         0.067770
 C         1.554954         0.056613         0.052973
 C         2.016186        -0.600756         1.375621
 O         3.197464        -1.365627         1.185927
 C         4.479652        -0.706087         1.139680
 C         4.714285         0.494027         0.241045
 C         3.848068         1.200088        -0.465893
 C         2.410690         0.906542        -0.748787
 O         2.041529        -0.397000        -1.231645
 H        -0.344967         0.710709         1.011746
 H        -0.348523         0.956096        -0.776864
 H        -0.442954        -0.690310        -0.081608
 H         2.103468         0.104776         2.207866
 H         1.310835        -1.429599         1.548260
 H         4.791152        -0.268599         2.090491
 H         5.245956        -1.490669         0.938829
 H         5.753131         0.760856         0.207075
 H         4.259989         1.999430        -0.984967
 H         1.848796         1.590034        -1.327304
