19
Iteration:  2031
 C        -0.053935         0.168838         0.126804
 C         1.480702         0.047878        -0.028625
 C         2.209231        -0.611431         1.265529
 O         3.314872        -1.383182         1.189815
 C         4.515698        -0.686345         1.351430
 C         4.674705         0.411468         0.266484
 C         3.796574         1.018048        -0.551031
 C         2.373153         1.013194        -0.643862
 O         1.976794        -0.172139        -1.366089
 H        -0.099956         0.662725         1.132065
 H        -0.519492         0.840155        -0.572667
 H        -0.514437        -0.803378         0.003513
 H         2.190752         0.149988         2.051061
 H         1.476445        -1.437046         1.585587
 H         4.744135        -0.338266         2.464481
 H         5.284870        -1.383145         1.112323
 H         5.658896         0.633264         0.117520
 H         4.162606         1.706859        -1.299999
 H         1.940041         1.988983        -1.169410
