19
Iteration:  4770
 C         0.014790         0.248237         0.174167
 C         1.515437         0.124645        -0.004286
 C         2.117357        -0.960346         1.038231
 O         3.366915        -1.559275         0.932380
 C         4.425646        -0.789792         1.304054
 C         4.703116         0.407857         0.420010
 C         3.881217         1.237160        -0.308746
 C         2.385603         1.128802        -0.507362
 O         1.921332        -0.002024        -1.411456
 H        -0.357819        -0.367619         0.960167
 H        -0.081743         1.378524         0.275884
 H        -0.619519        -0.068936        -0.643738
 H         1.991179        -0.591261         2.058863
 H         1.460024        -1.828924         1.056156
 H         4.260765        -0.399988         2.337034
 H         5.208075        -1.580627         1.308811
 H         5.751926         0.825242         0.419291
 H         4.292821         2.166845        -0.734421
 H         1.911867         2.165743        -0.731516
