19
Iteration:  1075charge 0 multiplicity 1
 C         0.080616         0.290530         0.071509
 C         1.540993         0.131751         0.135865
 C         2.003518        -0.680118         1.348008
 O         3.199825        -1.402647         1.202076
 C         4.360069        -0.668287         1.082419
 C         4.692493         0.456999         0.177156
 C         3.827455         1.290502        -0.504211
 C         2.398010         0.935332        -0.798422
 O         2.190686        -0.471340        -1.155938
 H        -0.184726         0.596300         1.100142
 H        -0.289621         1.069126        -0.711547
 H        -0.372100        -0.683995        -0.057236
 H         2.088407        -0.013702         2.206110
 H         1.176395        -1.318756         1.684983
 H         4.515344        -0.338781         2.125028
 H         5.122205        -1.457266         0.930771
 H         5.752048         0.632385         0.227999
 H         4.063252         2.156277        -0.979186
 H         1.991509         1.729292        -1.363186
