19
Iteration:  4892charge 0 multiplicity 1
 C         0.142587         0.550632         0.462341
 C         1.545117         0.004619        -0.004603
 C         2.008978        -1.126616         0.929646
 O         3.409747        -1.521983         0.663906
 C         4.377019        -0.704208         1.345085
 C         4.611018         0.602466         0.721537
 C         3.914409         1.270089        -0.288288
 C         2.524406         0.969173        -0.731599
 O         1.808283        -0.215098        -1.465940
 H         0.146998         1.438457         1.031964
 H        -0.437028         0.555577        -0.467953
 H        -0.302282        -0.276752         1.083229
 H         2.022567        -0.711916         2.046554
 H         1.518618        -2.093774         0.865769
 H         3.919649        -0.495831         2.334687
 H         5.347288        -1.287094         1.395675
 H         5.515043         1.125317         1.097833
 H         4.244144         2.268245        -0.598148
 H         1.999486         1.946134        -1.146546
