19
Iteration:   291
 C         0.141397         0.569597         0.229044
 C         1.529886         0.002315         0.072801
 C         1.996805        -0.945565         1.180029
 O         3.351313        -1.463703         1.172690
 C         4.462328        -0.514022         1.201310
 C         4.711938         0.629282         0.280111
 C         3.858857         1.181603        -0.568606
 C         2.411172         0.861803        -0.786435
 O         1.883531        -0.482504        -1.202739
 H         0.090529         1.380761         1.048560
 H        -0.192873         0.979353        -0.643004
 H        -0.723927        -0.144932         0.457148
 H         1.715599        -0.516615         2.224088
 H         1.383401        -1.909214         1.003040
 H         4.526901        -0.123008         2.247517
 H         5.268482        -1.148297         1.061306
 H         5.714023         1.029593         0.404158
 H         4.279068         1.974893        -1.257033
 H         1.779294         1.657446        -1.315672
