19
Iteration:  1139
 C         0.025782         0.330788         0.201857
 C         1.522518         0.091248         0.008791
 C         2.124453        -0.648723         1.237074
 O         3.343186        -1.365458         0.980193
 C         4.479726        -0.676511         1.411187
 C         4.699976         0.506637         0.447513
 C         3.834469         1.093571        -0.511716
 C         2.407608         0.849978        -0.867522
 O         1.863535        -0.400050        -1.310733
 H        -0.170514         1.162451         0.998708
 H        -0.441342         0.762015        -0.785195
 H        -0.560643        -0.594942         0.426774
 H         2.438478         0.247246         1.906351
 H         1.443166        -1.310779         1.765109
 H         4.506064        -0.275123         2.407885
 H         5.424070        -1.370533         1.242271
 H         5.653604         1.045459         0.589463
 H         4.273216         1.898652        -0.897933
 H         1.933504         1.583555        -1.453911
