19
Iteration:  1325
 C         0.174824         0.600604         0.146835
 C         1.547649        -0.079739         0.104578
 C         1.961240        -1.145014         1.238475
 O         3.310460        -1.426972         1.112964
 C         4.389606        -0.339147         1.393798
 C         4.698519         0.532614         0.219565
 C         3.842825         1.154910        -0.706690
 C         2.434614         0.850780        -0.672434
 O         1.961107        -0.367613        -1.232455
 H        -0.175761         0.958071         1.170987
 H         0.228179         1.562523        -0.461638
 H        -0.665858        -0.063780        -0.072243
 H         1.764417        -0.585856         2.275862
 H         1.545432        -2.150516         1.033725
 H         4.106581         0.322208         2.225892
 H         5.302467        -1.059311         1.775162
 H         5.737126         0.778954        -0.109141
 H         4.171082         1.842936        -1.412013
 H         1.995872         1.670446        -1.157460
