19
Iteration:  2165
 C         0.130954         0.441545         0.408584
 C         1.517266         0.052528        -0.074744
 C         2.113159        -0.914370         1.049665
 O         3.415275        -1.442950         1.167054
 C         4.374900        -0.449037         1.516034
 C         4.647258         0.590460         0.375594
 C         3.846954         0.945836        -0.643673
 C         2.417102         0.930551        -0.858017
 O         1.846924        -0.314633        -1.376705
 H         0.402717         1.147154         1.292369
 H        -0.568829         0.850669        -0.334622
 H        -0.417807        -0.294542         0.839130
 H         1.736074        -0.653855         2.000866
 H         1.606950        -1.832464         0.717358
 H         4.222224        -0.094423         2.505894
 H         5.258022        -1.071872         1.492514
 H         5.759799         0.917086         0.357813
 H         4.231080         1.556796        -1.498456
 H         1.948089         1.895584        -1.260256
