19
Iteration:  1259charge 0 multiplicity 1
 C         0.014801         0.157288         0.384861
 C         1.544369         0.055469        -0.006322
 C         2.026819        -0.743596         1.081081
 O         3.264605        -1.289641         1.035898
 C         4.338798        -0.463414         1.475277
 C         4.817216         0.505610         0.351463
 C         3.972598         0.878789        -0.675891
 C         2.542566         0.929664        -0.686117
 O         1.852031        -0.208071        -1.398690
 H        -0.170974         0.573345         1.420630
 H        -0.606459         0.811451        -0.328632
 H        -0.371588        -0.810640         0.583202
 H         1.956820        -0.179633         2.124186
 H         1.373201        -1.593344         1.260510
 H         3.880292         0.166030         2.296709
 H         5.350186        -1.001451         1.682303
 H         5.909222         0.515483         0.235106
 H         4.468382         1.317092        -1.426164
 H         2.202508         1.805934        -1.102624
