19
Iteration:   562
 C         0.126978         0.377373         0.228144
 C         1.557279        -0.021623        -0.009447
 C         1.977628        -0.852647         1.233195
 O         3.290364        -1.436855         1.303766
 C         4.402497        -0.582568         1.218387
 C         4.683851         0.505475         0.212022
 C         3.828404         1.200069        -0.567860
 C         2.420039         0.959046        -0.737315
 O         1.995538        -0.340287        -1.340182
 H         0.006691         1.145229         1.100980
 H        -0.305329         0.923228        -0.583638
 H        -0.525037        -0.553615         0.433511
 H         1.934184        -0.216062         2.150374
 H         1.311790        -1.685972         1.410295
 H         4.700195        -0.276706         2.255913
 H         5.361601        -1.268702         0.944015
 H         5.683490         0.835744         0.368889
 H         4.311172         2.195475        -1.044260
 H         1.930038         1.779621        -1.333962
