19
Iteration:  1220
 C         0.064822         0.482209         0.189357
 C         1.560793         0.016808         0.046010
 C         2.082626        -0.899862         1.196129
 O         3.418386        -1.398446         1.082554
 C         4.433332        -0.503916         1.427337
 C         4.736320         0.508245         0.346961
 C         3.839191         1.092868        -0.549187
 C         2.428483         0.859127        -0.772986
 O         1.796625        -0.356369        -1.321353
 H        -0.099787         1.182717         0.983252
 H        -0.042663         0.958952        -0.767408
 H        -0.684380        -0.380910         0.234203
 H         1.776821        -0.380998         2.120124
 H         1.366693        -1.790697         1.188888
 H         4.194307         0.028896         2.333893
 H         5.224304        -1.199917         1.614260
 H         5.769748         0.725714         0.005386
 H         4.339240         1.856278        -1.341107
 H         1.915578         1.877054        -1.109119
