19
Iteration:  3033charge 0 multiplicity 1
 C        -0.055237         0.259003         0.313496
 C         1.520818         0.045906         0.090644
 C         2.038072        -0.988018         1.065079
 O         3.334271        -1.436304         0.751291
 C         4.360629        -0.626743         1.345372
 C         4.779595         0.496641         0.413398
 C         3.973765         1.114819        -0.475849
 C         2.462617         1.030379        -0.570786
 O         1.939853        -0.059538        -1.327431
 H        -0.652189         0.548441        -0.518827
 H        -0.536477        -0.636883         0.692414
 H        -0.142795         1.062118         1.070922
 H         2.015319        -0.609554         2.166565
 H         1.377443        -1.935476         1.063469
 H         4.024346        -0.339359         2.288838
 H         5.216024        -1.302503         1.490295
 H         5.761076         0.812645         0.571791
 H         4.535505         1.792550        -1.189207
 H         2.001551         2.037482        -0.566936
