19
Iteration:   261
 C         0.007562         0.454115         0.190887
 C         1.501989         0.043623         0.114038
 C         2.111202        -0.754433         1.309441
 O         3.352303        -1.331989         0.860323
 C         4.472311        -0.546157         1.290149
 C         4.759429         0.565627         0.391373
 C         3.824549         0.942762        -0.525051
 C         2.382502         0.823055        -0.725997
 O         1.890933        -0.397987        -1.268455
 H        -0.136731         1.389773         0.775753
 H        -0.323014         0.641885        -0.823063
 H        -0.604155        -0.396945         0.600161
 H         2.354935        -0.137854         2.193173
 H         1.482791        -1.648113         1.515140
 H         4.292339        -0.168840         2.351658
 H         5.402974        -1.283695         1.253005
 H         5.715363         1.004685         0.406062
 H         4.218924         1.681239        -1.068699
 H         1.933488         1.721052        -1.174017
