19
Iteration:  4474
 C         0.181008         0.609678         0.336382
 C         1.572482         0.030080         0.178657
 C         2.029222        -1.263438         0.908138
 O         3.347617        -1.534658         0.675225
 C         4.283622        -0.571838         1.243584
 C         4.683188         0.573217         0.483256
 C         3.883857         1.317543        -0.260482
 C         2.475314         0.922291        -0.587608
 O         1.936709        -0.267971        -1.305994
 H        -0.399680         0.155748         1.071141
 H         0.178601         1.684366         0.601212
 H        -0.304449         0.482408        -0.579179
 H         1.825155        -1.052103         1.998036
 H         1.289383        -2.004330         0.400671
 H         3.837911        -0.290282         2.264200
 H         5.049201        -1.149506         1.579619
 H         5.605949         0.982536         0.883551
 H         4.195344         2.306422        -0.703380
 H         1.821611         1.781340        -1.016162
