19
Iteration:  2530
 C         0.061034         0.430050         0.320518
 C         1.484114         0.061278         0.035988
 C         2.098789        -0.771014         1.156371
 O         3.341069        -1.459459         0.892398
 C         4.425052        -0.685509         1.205761
 C         4.703942         0.657898         0.536964
 C         3.855068         1.178339        -0.372483
 C         2.448917         0.832083        -0.772378
 O         1.880561        -0.400834        -1.365742
 H        -0.482262        -0.615736         0.005346
 H        -0.192868         0.588468         1.389488
 H        -0.272502         1.376091        -0.300132
 H         2.303511        -0.020937         1.961907
 H         1.336087        -1.479496         1.517766
 H         4.502622        -0.497405         2.405377
 H         5.217969        -1.376434         0.956167
 H         5.716170         1.134888         0.679365
 H         4.261546         2.020617        -0.982867
 H         2.082593         1.661957        -1.353388
