19
Iteration:  1344charge 0 multiplicity 1
 C         0.091076         0.506024         0.294659
 C         1.567283         0.028464         0.059214
 C         1.992026        -0.962745         1.151380
 O         3.376838        -1.362156         1.070839
 C         4.294186        -0.401372         1.339302
 C         4.770673         0.529201         0.319228
 C         3.905789         1.083744        -0.637504
 C         2.435266         0.816022        -0.763092
 O         1.926849        -0.438160        -1.254893
 H         0.090316         0.936202         1.318084
 H        -0.197895         1.330738        -0.417382
 H        -0.608089        -0.273495         0.145459
 H         1.689328        -0.488021         2.053549
 H         1.399388        -1.912486         0.914869
 H         4.008216         0.083661         2.258885
 H         5.110282        -0.997840         1.712603
 H         5.769472         0.915723         0.346680
 H         4.305200         1.719343        -1.388928
 H         1.849795         1.762881        -1.115313
