19
Iteration:   334charge 0 multiplicity 1
 C         0.108403         0.454857         0.381252
 C         1.558009        -0.012620        -0.043414
 C         2.068897        -0.871844         1.177304
 O         3.343593        -1.486572         1.180824
 C         4.365928        -0.487251         1.341709
 C         4.651716         0.552882         0.293511
 C         3.820724         1.125313        -0.659985
 C         2.414240         0.981871        -0.786035
 O         1.953024        -0.413324        -1.316797
 H         0.385558         0.930679         1.412027
 H        -0.272992         1.146588        -0.267464
 H        -0.627224        -0.418985         0.507435
 H         2.130062        -0.255674         2.030633
 H         1.355187        -1.716918         1.248497
 H         4.146663         0.106796         2.218764
 H         5.213796        -1.011189         1.443129
 H         5.712060         0.637437         0.098773
 H         4.401349         1.784551        -1.476269
 H         1.898640         1.739739        -1.449024
