19
Iteration:  1836charge 0 multiplicity 1
 C        -0.006223         0.451197         0.123238
 C         1.533866         0.032665         0.135487
 C         1.932753        -0.996071         1.199583
 O         3.354040        -1.459065         1.120540
 C         4.409939        -0.401081         1.346097
 C         4.762677         0.445683         0.110641
 C         3.850701         1.092952        -0.646402
 C         2.384912         0.991774        -0.633887
 O         2.085143        -0.346544        -1.138296
 H         0.016495         1.282121         1.012165
 H        -0.083120         0.935051        -0.847044
 H        -0.810727        -0.204675         0.095734
 H         1.828482        -0.630904         2.236839
 H         1.390559        -1.875829         1.233267
 H         4.052803         0.272029         2.132251
 H         5.391647        -1.001817         1.484249
 H         5.775977         0.692511         0.032998
 H         4.081005         1.801840        -1.514113
 H         1.858487         1.678519        -1.147166
