19
Iteration:   658charge 0 multiplicity 1
 C         0.064535         0.419563         0.119096
 C         1.525454         0.087898         0.152224
 C         1.962239        -0.746022         1.223553
 O         3.223388        -1.356009         0.944957
 C         4.370359        -0.545543         1.189933
 C         4.769878         0.538307         0.229445
 C         3.837552         1.219595        -0.509872
 C         2.452017         0.806505        -0.637623
 O         2.099094        -0.532924        -1.061780
 H        -0.260217         0.920350         1.101447
 H        -0.197089         1.106707        -0.628503
 H        -0.534437        -0.517818        -0.016256
 H         1.940655        -0.335689         2.299052
 H         1.416555        -1.782421         1.157439
 H         4.412091        -0.107138         2.177936
 H         5.122599        -1.238831         1.087696
 H         5.866539         0.648931         0.249911
 H         4.261222         2.102082        -1.251352
 H         1.974711         1.530796        -1.458569
