19
Iteration:     9
 C         0.058144         0.462793         0.183784
 C         1.525594         0.080617         0.065963
 C         2.037406        -0.837122         1.167451
 O         3.316776        -1.384460         1.054766
 C         4.475764        -0.592271         1.231270
 C         4.657413         0.535560         0.331340
 C         3.864713         1.166238        -0.538084
 C         2.399410         0.894347        -0.754449
 O         1.959461        -0.448083        -1.126853
 H        -0.030884         1.068625         1.175929
 H        -0.256153         0.911009        -0.644197
 H        -0.481136        -0.556630         0.274563
 H         1.971600        -0.166308         2.181639
 H         1.467147        -1.802554         1.171330
 H         4.615256        -0.269367         2.305596
 H         5.211346        -1.256058         1.030567
 H         5.715942         0.655636         0.081722
 H         4.329021         1.973786        -1.266278
 H         1.760683         1.709527        -1.355065
