19
Iteration:  4327
 C         0.068574         0.609647         0.296717
 C         1.507502         0.032060         0.118699
 C         2.022611        -1.083539         1.064440
 O         3.245553        -1.557114         0.648189
 C         4.389193        -0.715336         1.098308
 C         4.755441         0.650348         0.527216
 C         3.787151         1.376731        -0.143895
 C         2.456133         0.935108        -0.634551
 O         2.113413        -0.337270        -1.231015
 H        -0.567296        -0.115064         0.895597
 H        -0.162617         1.668690         0.358530
 H        -0.399376         0.180406        -0.622991
 H         2.004719        -0.672245         2.098320
 H         1.354770        -1.933065         0.755848
 H         4.259167        -0.620366         2.146693
 H         5.154783        -1.510762         0.927626
 H         5.662393         1.130787         0.726551
 H         4.061273         2.308167        -0.612946
 H         2.001230         1.682451        -1.232551
