19
Iteration:  3051charge 0 multiplicity 1
 C         0.157470         0.397459         0.389437
 C         1.530108         0.022966         0.044465
 C         2.015180        -1.081789         0.985027
 O         3.363715        -1.548810         0.830462
 C         4.350165        -0.616689         1.324112
 C         4.721775         0.600337         0.512400
 C         3.929802         1.172766        -0.458964
 C         2.478472         1.026996        -0.619400
 O         1.824887        -0.120716        -1.345507
 H        -0.427826         0.737965        -0.604056
 H        -0.455742        -0.567168         0.671818
 H         0.058105         1.181735         1.235728
 H         1.794104        -0.650688         1.926194
 H         1.468351        -1.966656         0.774696
 H         3.980307        -0.247806         2.430316
 H         5.194520        -1.289539         1.396829
 H         5.789978         0.889490         0.494971
 H         4.353840         2.015442        -1.042194
 H         1.977711         1.818893        -1.133813
