19
Iteration:  4976charge 0 multiplicity 1
 C         0.011956         0.368772         0.099244
 C         1.485357         0.072607         0.079206
 C         2.015002        -1.093159         1.047120
 O         3.339288        -1.530987         0.734535
 C         4.381999        -0.614781         1.296512
 C         4.797043         0.475115         0.314642
 C         3.894062         1.273707        -0.304986
 C         2.422741         1.078783        -0.342714
 O         2.001613        -0.132108        -1.209200
 H        -0.453056         0.445105         1.116924
 H        -0.241834         1.375693        -0.426711
 H        -0.536964        -0.508259        -0.337897
 H         1.734691        -0.907179         2.062893
 H         1.402556        -1.976766         0.768308
 H         4.166725        -0.280452         2.301943
 H         5.202170        -1.380609         1.469542
 H         5.908536         0.645191         0.085740
 H         4.298089         2.020605        -1.006459
 H         1.918017         1.921545        -0.667110
