19
Iteration:  3429charge 0 multiplicity 1
 C        -0.000681         0.248600         0.210746
 C         1.498078         0.061175         0.084247
 C         1.996067        -0.884501         1.170812
 O         3.320127        -1.453948         0.773462
 C         4.414181        -0.738708         1.167600
 C         4.764908         0.465942         0.332405
 C         3.822721         1.163175        -0.370213
 C         2.388404         1.098453        -0.520805
 O         2.092909        -0.120517        -1.186377
 H        -0.342408         0.407583        -0.911387
 H        -0.519489        -0.672889         0.507176
 H        -0.300509         1.048741         1.018100
 H         2.115524        -0.312715         2.120076
 H         1.351013        -1.722709         1.264456
 H         4.347273        -0.474436         2.184712
 H         5.184019        -1.411473         1.169476
 H         5.822822         0.709920         0.274376
 H         4.158584         2.111150        -0.898125
 H         1.920429         2.015406        -0.980676
