19
Iteration:  1182
 C         0.123416         0.614426         0.236575
 C         1.504352        -0.019912         0.122989
 C         1.935878        -0.975757         1.238182
 O         3.230219        -1.457536         1.048709
 C         4.360210        -0.529093         1.238630
 C         4.688779         0.639114         0.317572
 C         3.865063         1.292092        -0.634727
 C         2.445718         0.784647        -0.830172
 O         2.126810        -0.509901        -1.161279
 H         0.037197         1.364510         1.107317
 H        -0.270305         1.180230        -0.700996
 H        -0.680771        -0.119751         0.325677
 H         1.970580        -0.551735         2.243154
 H         1.478034        -1.896926         1.105651
 H         4.346592        -0.189249         2.334491
 H         5.411870        -1.014565         1.168716
 H         5.762961         0.886715         0.432847
 H         4.218632         2.085551        -1.132569
 H         1.877958         1.527850        -1.307046
