19
Iteration:   681
 C         0.034968         0.520688         0.083423
 C         1.518956        -0.007040         0.069382
 C         1.989523        -0.875403         1.315148
 O         3.369286        -1.464483         1.140940
 C         4.490123        -0.609767         1.234214
 C         4.694869         0.552828         0.283967
 C         3.806971         1.186189        -0.557036
 C         2.380177         0.911814        -0.785837
 O         1.990256        -0.407394        -1.197253
 H        -0.018374         1.345152         0.874025
 H        -0.187152         1.005675        -0.849310
 H        -0.714950        -0.307228         0.272785
 H         1.835463        -0.261561         2.280098
 H         1.485675        -1.920711         1.398545
 H         4.539720        -0.081247         2.179953
 H         5.324589        -1.257657         1.216844
 H         5.721413         0.927592         0.418332
 H         4.339204         2.113787        -1.052746
 H         1.880568         1.695880        -1.508668
