19
Iteration:  4585
 C         0.028779         0.300868         0.119323
 C         1.590294        -0.023683         0.146543
 C         1.877149        -1.086251         1.083611
 O         3.328469        -1.453210         0.861093
 C         4.326737        -0.563370         1.267112
 C         4.732994         0.371287         0.166745
 C         3.867639         1.236075        -0.414810
 C         2.427927         1.153418        -0.381901
 O         2.131882        -0.120074        -1.151113
 H        -0.495938         0.023297        -0.728813
 H        -0.380373         0.102186         1.113033
 H        -0.036698         1.348652         0.055228
 H         1.653326        -0.877453         2.094193
 H         1.483807        -2.089818         0.664038
 H         3.924525         0.104429         2.085424
 H         5.219541        -1.044097         1.426328
 H         5.803537         0.390347         0.024380
 H         4.257220         1.893072        -1.135765
 H         1.940461         2.136557        -0.749986
