19
Iteration:  3791charge 0 multiplicity 1
 C        -0.058787         0.197270         0.024365
 C         1.465246         0.060305         0.165131
 C         2.011164        -0.960483         1.216808
 O         3.272914        -1.425094         0.831052
 C         4.437739        -0.634099         1.201513
 C         4.860501         0.431047         0.224558
 C         3.952638         1.164285        -0.430907
 C         2.527466         1.058238        -0.452006
 O         1.890125        -0.055048        -1.145279
 H        -0.375204         0.634594        -0.888653
 H        -0.319493        -0.831317         0.114253
 H        -0.670343         0.696160         0.785960
 H         1.992461        -0.558099         2.255486
 H         1.414817        -1.850862         1.231465
 H         4.532164        -0.230451         2.254447
 H         5.326511        -1.304399         1.393665
 H         5.992089         0.728887         0.111643
 H         4.191452         2.088622        -0.934197
 H         1.899840         1.990905        -0.648955
