19
Iteration:  1476charge 0 multiplicity 1
 C         0.029890         0.300570         0.113380
 C         1.523058         0.083156         0.116535
 C         2.021139        -0.688886         1.380500
 O         3.203464        -1.441549         1.037082
 C         4.422753        -0.618827         1.217681
 C         4.693130         0.543087         0.253108
 C         3.903421         1.222213        -0.549748
 C         2.435023         0.886315        -0.795377
 O         2.101292        -0.423471        -1.197455
 H        -0.266577         0.918741         0.999339
 H        -0.547950         0.875424        -0.656694
 H        -0.564908        -0.545445         0.291844
 H         2.232687        -0.006344         2.227518
 H         1.262689        -1.445587         1.812204
 H         4.529960        -0.218405         2.274267
 H         5.168907        -1.252260         0.989948
 H         5.801073         0.589932         0.195259
 H         4.431557         1.971875        -1.166881
 H         1.683899         1.687144        -1.191182
