19
Iteration:   192charge 0 multiplicity 1
 C         0.174502         0.374605         0.108128
 C         1.618986         0.021348         0.064878
 C         2.053818        -0.680256         1.393306
 O         3.238048        -1.400677         1.194617
 C         4.495858        -0.711649         1.110676
 C         4.584765         0.503927         0.279782
 C         3.797904         1.239051        -0.570540
 C         2.358424         0.939787        -0.746696
 O         1.990469        -0.449968        -1.225350
 H        -0.255464         0.785544         1.065928
 H        -0.102923         1.064301        -0.630606
 H        -0.495423        -0.484727        -0.166286
 H         2.112127         0.111345         2.193857
 H         1.345114        -1.554518         1.512751
 H         4.883000        -0.496692         2.168908
 H         5.110982        -1.487542         0.597097
 H         5.664806         0.864913         0.348122
 H         4.210081         2.271001        -0.877823
 H         1.803760         1.759628        -1.343708
