19
Iteration:  1526
 C        -0.061293         0.245932         0.160562
 C         1.431713         0.083788        -0.015252
 C         2.210011        -0.510270         1.317392
 O         3.336026        -1.370971         1.136313
 C         4.545667        -0.750712         1.256926
 C         4.778795         0.533077         0.432313
 C         3.798918         1.105760        -0.400545
 C         2.423541         0.837358        -0.891958
 O         1.843501        -0.357853        -1.358370
 H        -0.561247         0.395752         1.068612
 H        -0.455025         1.125975        -0.360453
 H        -0.689775        -0.514447        -0.402495
 H         2.500917         0.352972         1.927825
 H         1.526189        -1.044869         1.909748
 H         4.800554        -0.444058         2.293722
 H         5.324949        -1.596645         0.868814
 H         5.789766         0.924545         0.492917
 H         4.241503         1.841386        -0.979186
 H         2.062362         1.549590        -1.534707
