19
Iteration:  3090
 C         0.252843         0.732840         0.511185
 C         1.548502        -0.074868        -0.019231
 C         2.028472        -1.255799         0.850055
 O         3.440037        -1.627074         0.854243
 C         4.370297        -0.532316         1.378840
 C         4.592115         0.624310         0.548718
 C         3.769141         1.199795        -0.402931
 C         2.376715         0.956905        -0.761015
 O         1.903122        -0.239285        -1.385459
 H         0.056137         1.532780        -0.039190
 H        -0.570523         0.139423         0.605075
 H         0.463542         1.061031         1.479914
 H         1.763890        -0.947018         1.935892
 H         1.374346        -2.181068         0.616236
 H         3.978336        -0.320292         2.383120
 H         5.426988        -0.933876         1.554123
 H         5.577611         1.182403         0.618399
 H         4.261508         2.025987        -0.870122
 H         1.866285         1.951647        -1.024786
