19
Iteration:   259charge 0 multiplicity 1
 C         0.014336         0.440260         0.184845
 C         1.503426         0.039509         0.114029
 C         2.117791        -0.730974         1.299678
 O         3.346293        -1.321483         0.849264
 C         4.468762        -0.551894         1.281248
 C         4.775795         0.543801         0.400726
 C         3.809624         0.937638        -0.509303
 C         2.376097         0.813344        -0.732201
 O         1.882789        -0.390014        -1.263909
 H        -0.135140         1.406171         0.792809
 H        -0.256541         0.599798        -0.766665
 H        -0.532373        -0.472331         0.626149
 H         2.393905        -0.115328         2.232132
 H         1.446800        -1.651454         1.524658
 H         4.291336        -0.097964         2.346520
 H         5.341684        -1.250657         1.309258
 H         5.744490         1.024559         0.440539
 H         4.258725         1.742994        -1.088958
 H         1.933758         1.763882        -1.214560
