19
Iteration:  2279
 C         0.019450         0.400761         0.375420
 C         1.472087         0.031620        -0.004890
 C         2.055850        -0.896741         1.138786
 O         3.394776        -1.451604         1.110459
 C         4.394005        -0.407367         1.413907
 C         4.779506         0.537196         0.358367
 C         3.962228         1.035998        -0.668953
 C         2.472925         0.845522        -0.798862
 O         1.766386        -0.309740        -1.382586
 H         0.094573         0.499641         1.427976
 H        -0.231922         1.290630        -0.174434
 H        -0.661114        -0.404435         0.037298
 H         1.937271        -0.347226         2.037949
 H         1.468945        -1.805158         1.184499
 H         4.000020         0.225319         2.134201
 H         5.384066        -0.830168         1.776627
 H         5.810688         0.855244         0.487895
 H         4.501738         1.752026        -1.273469
 H         2.185455         1.846004        -1.014814
