19
Iteration:  1839charge 0 multiplicity 1
 C         0.016032         0.462250         0.134796
 C         1.532540         0.029768         0.143326
 C         1.906316        -0.978427         1.195589
 O         3.361106        -1.457183         1.103570
 C         4.404147        -0.400698         1.310915
 C         4.750887         0.465850         0.100470
 C         3.866238         1.107588        -0.631462
 C         2.387917         0.977389        -0.636012
 O         2.085482        -0.370626        -1.117065
 H        -0.041380         1.271049         0.870698
 H        -0.124560         0.900293        -0.874195
 H        -0.823723        -0.299634         0.130859
 H         1.774661        -0.574990         2.237432
 H         1.337570        -1.931865         1.226792
 H         4.097162         0.168470         2.172858
 H         5.361558        -0.929767         1.552680
 H         5.847459         0.618955         0.059074
 H         4.200150         1.758190        -1.388217
 H         1.809338         1.765243        -1.132268
