19
Iteration:   415charge 0 multiplicity 1
 C         0.076857         0.465615         0.251750
 C         1.519068        -0.001224         0.075231
 C         2.022690        -0.903979         1.247333
 O         3.346542        -1.372443         1.043760
 C         4.344243        -0.443088         1.342645
 C         4.748536         0.503689         0.211607
 C         3.862757         1.061330        -0.687911
 C         2.428052         0.899471        -0.719079
 O         2.003150        -0.396626        -1.205193
 H        -0.157085         0.776280         1.240985
 H        -0.369483         1.318472        -0.425816
 H        -0.598618        -0.368175         0.109666
 H         1.916331        -0.460148         2.224547
 H         1.339040        -1.799043         1.331302
 H         4.084739         0.093872         2.213543
 H         5.209162        -1.025589         1.636843
 H         5.840645         0.751475         0.044998
 H         4.183080         1.739006        -1.306831
 H         1.882575         1.763389        -1.103964
