19
Iteration:  4759charge 0 multiplicity 1
 C         0.056779         0.326556         0.189713
 C         1.509280        -0.019644        -0.025441
 C         2.000654        -0.952668         1.027422
 O         3.332050        -1.525874         0.839275
 C         4.477829        -0.788435         1.294316
 C         4.741697         0.499068         0.454470
 C         3.894029         1.295942        -0.212964
 C         2.467777         1.075449        -0.532389
 O         1.842292        -0.081027        -1.359751
 H        -0.320792        -0.297653         0.968846
 H        -0.209444         1.368751         0.591273
 H        -0.320880         0.161756        -0.806037
 H         1.910460        -0.488625         2.008022
 H         1.338657        -1.829535         0.945573
 H         4.406317        -0.398014         2.343313
 H         5.408320        -1.391381         1.356778
 H         5.838124         0.724164         0.424919
 H         4.344959         2.109407        -0.792071
 H         1.980197         1.990859        -1.018998
