19
Iteration:  2836charge 0 multiplicity 1
 C         0.080457         0.311518         0.146867
 C         1.537391         0.039420         0.034623
 C         2.006740        -0.896056         1.177739
 O         3.241595        -1.599740         1.047760
 C         4.462841        -0.790621         1.105900
 C         4.638350         0.553071         0.254265
 C         3.804780         1.373422        -0.305298
 C         2.396509         1.113140        -0.558238
 O         2.128752        -0.190467        -1.266505
 H        -0.439192         0.571506        -0.684444
 H        -0.276376        -0.533028         0.633234
 H        -0.082089         1.051885         0.862041
 H         1.889630        -0.508869         2.136126
 H         1.287057        -1.729407         1.059075
 H         4.653881        -0.718167         2.086362
 H         5.231698        -1.547777         0.651067
 H         5.729145         0.709074         0.160881
 H         4.184887         2.351439        -0.720539
 H         1.719166         2.023708        -0.908909
