19
Iteration:  1531
 C        -0.063936         0.259702         0.149320
 C         1.450415         0.053125         0.005197
 C         2.151716        -0.484963         1.312464
 O         3.315335        -1.424595         1.124873
 C         4.530995        -0.721586         1.222580
 C         4.721522         0.545115         0.408074
 C         3.841562         1.077933        -0.421314
 C         2.451352         0.858126        -0.860196
 O         1.890728        -0.396396        -1.328373
 H        -0.419232         0.427350         1.259651
 H        -0.380072         1.217490        -0.404326
 H        -0.679207        -0.401477        -0.398140
 H         2.491569         0.396930         1.931363
 H         1.499178        -1.173065         1.985722
 H         4.924301        -0.447899         2.228079
 H         5.344970        -1.325361         0.907773
 H         5.725408         1.024769         0.514846
 H         4.177387         2.044392        -1.016253
 H         1.955724         1.783401        -1.502329
