19
Iteration:  4170
 C         0.028476         0.304858         0.200105
 C         1.517689        -0.020764         0.085255
 C         2.018794        -1.075214         1.082386
 O         3.329257        -1.411241         0.824637
 C         4.340679        -0.552314         1.374495
 C         4.746065         0.389692         0.251253
 C         3.916856         1.202613        -0.420060
 C         2.441802         1.038327        -0.491310
 O         1.995313        -0.058263        -1.280573
 H        -0.548612         0.247647        -0.694756
 H        -0.439967        -0.319088         1.033819
 H        -0.056930         1.386241         0.493604
 H         1.761375        -0.762073         2.165523
 H         1.407174        -1.940624         0.934870
 H         4.157345        -0.080069         2.452738
 H         5.183198        -1.298058         1.640635
 H         5.853963         0.393613         0.154659
 H         4.342092         1.990917        -1.031383
 H         1.972303         1.926583        -0.805996
