19
Iteration:   731charge 0 multiplicity 1
 C         0.033390         0.308408         0.375060
 C         1.503839         0.041757        -0.090843
 C         2.111550        -0.752664         1.191102
 O         3.323756        -1.366865         1.083576
 C         4.394305        -0.538314         1.401136
 C         4.663646         0.517336         0.404046
 C         3.929175         1.014673        -0.530838
 C         2.442315         0.891909        -0.876983
 O         1.872002        -0.333084        -1.427800
 H         0.254612         1.239418         0.903425
 H        -0.753603         0.545353        -0.371108
 H        -0.263630        -0.414419         1.120066
 H         2.119768         0.014878         1.972604
 H         1.611542        -1.647362         1.459495
 H         4.387434        -0.101611         2.466966
 H         5.257421        -1.335271         1.299884
 H         5.654861         0.923392         0.594889
 H         4.489549         1.870734        -1.036179
 H         2.110047         1.773453        -1.343830
