19
Iteration:  1224
 C         0.032086         0.434845         0.208390
 C         1.559411        -0.008517         0.060885
 C         2.083424        -0.883708         1.211067
 O         3.410812        -1.382505         1.075628
 C         4.426175        -0.503906         1.423105
 C         4.748350         0.499697         0.361990
 C         3.882809         1.067321        -0.565896
 C         2.424391         0.886637        -0.785129
 O         1.785524        -0.325770        -1.358075
 H        -0.087567         1.169580         1.027377
 H        -0.207828         0.931872        -0.738186
 H        -0.684792        -0.333373         0.243872
 H         1.928996        -0.253590         2.159609
 H         1.415356        -1.799071         1.142558
 H         4.187336         0.007094         2.398856
 H         5.246800        -1.162653         1.763564
 H         5.747578         0.722740         0.049935
 H         4.313382         1.765580        -1.302524
 H         2.065025         1.842198        -1.156725
