19
Iteration:   212charge 0 multiplicity 1
 C        -0.053915         0.279879         0.257623
 C         1.468876         0.104869         0.026642
 C         2.037077        -0.646831         1.252633
 O         3.239966        -1.387441         1.102204
 C         4.497923        -0.695889         1.123776
 C         4.758440         0.563820         0.342083
 C         3.877277         1.115770        -0.526899
 C         2.418850         0.876669        -0.792768
 O         2.050224        -0.373494        -1.207029
 H        -0.156787         0.872456         1.152300
 H        -0.587185         0.901448        -0.545266
 H        -0.537651        -0.676098         0.417509
 H         2.178863         0.174128         2.046668
 H         1.331369        -1.471246         1.549268
 H         4.608112        -0.421739         2.251922
 H         5.210867        -1.388832         0.881574
 H         5.795071         1.002358         0.507722
 H         4.430444         1.816079        -1.293194
 H         1.974068         1.655579        -1.443184
