19
Iteration:   758charge 0 multiplicity 1
 C         0.070108         0.395617         0.264082
 C         1.499227         0.107755         0.109149
 C         2.011647        -0.842891         1.154622
 O         3.281999        -1.405635         0.903390
 C         4.377591        -0.470368         1.389743
 C         4.830443         0.585203         0.356939
 C         3.920385         1.092950        -0.586144
 C         2.432875         0.838731        -0.768894
 O         1.923664        -0.446860        -1.191149
 H        -0.093369         1.246684         0.955479
 H        -0.309506         0.758142        -0.705896
 H        -0.523287        -0.439467         0.678230
 H         1.957512        -0.427718         2.162162
 H         1.491001        -1.836794         1.087497
 H         3.978521         0.056786         2.310390
 H         5.139768        -1.142578         1.613786
 H         5.877881         0.909066         0.222912
 H         4.434227         1.773606        -1.354297
 H         1.994743         1.724390        -1.358217
