19
Iteration:  3874
 C         0.119998         0.466999         0.355691
 C         1.546770         0.131088        -0.057926
 C         2.110925        -0.833434         1.067056
 O         3.366808        -1.563208         0.871254
 C         4.566819        -0.748182         1.201154
 C         4.530458         0.632799         0.656759
 C         3.815592         1.203131        -0.290071
 C         2.425680         0.938049        -0.809493
 O         1.824497        -0.352825        -1.378566
 H        -0.331185         1.153129        -0.337439
 H        -0.581587        -0.468269         0.304659
 H         0.162844         0.740740         1.433687
 H         2.223094        -0.235591         2.066074
 H         1.260807        -1.683624         1.237499
 H         4.619120        -0.679330         2.239865
 H         5.361786        -1.331917         0.704507
 H         5.429367         1.126637         1.038366
 H         4.303472         2.129398        -0.740863
 H         2.037891         1.885057        -1.276259
