19
Iteration:   480
 C         0.034782         0.500893         0.300442
 C         1.485666        -0.019311         0.009880
 C         2.045446        -0.822763         1.140598
 O         3.372027        -1.271717         1.087592
 C         4.526441        -0.554000         1.315687
 C         4.741107         0.569897         0.435835
 C         3.828292         0.989418        -0.532325
 C         2.408245         0.806122        -0.789210
 O         1.864936        -0.393436        -1.357183
 H         0.156026         1.194886         1.081111
 H        -0.497459         0.828216        -0.675253
 H        -0.511468        -0.321104         0.716825
 H         1.787851        -0.269305         2.019618
 H         1.462612        -1.839569         1.196991
 H         4.648022        -0.181870         2.431708
 H         5.288406        -1.228578         1.109095
 H         5.813412         0.945948         0.272836
 H         4.217395         1.648245        -1.153845
 H         1.947331         1.692501        -1.215593
