19
Iteration:  2096charge 0 multiplicity 1
 C         0.073890         0.591054         0.204330
 C         1.511986         0.013171         0.150718
 C         2.053967        -0.967272         1.159758
 O         3.340293        -1.376894         0.937721
 C         4.374490        -0.551357         1.350972
 C         4.715023         0.605125         0.319652
 C         3.823758         1.140968        -0.592697
 C         2.423416         0.825781        -0.743889
 O         2.032905        -0.431755        -1.136075
 H        -0.023735         1.079532         1.160760
 H        -0.332630         1.197627        -0.573375
 H        -0.746886        -0.201482         0.261937
 H         1.908877        -0.684903         2.175815
 H         1.357399        -1.803279         0.939963
 H         4.112838        -0.173574         2.344420
 H         5.174323        -1.215672         1.461904
 H         5.678718         0.924031         0.119915
 H         4.170800         1.821489        -1.348360
 H         1.963484         1.572494        -1.508207
