19
Iteration:     8
 C         0.057276         0.454410         0.190786
 C         1.528718         0.076167         0.062646
 C         2.042335        -0.829760         1.178496
 O         3.314312        -1.383984         1.047161
 C         4.468416        -0.588632         1.235659
 C         4.659684         0.535355         0.326689
 C         3.871388         1.156742        -0.535935
 C         2.398104         0.888779        -0.753053
 O         1.953697        -0.438136        -1.137650
 H        -0.027870         1.051753         1.180773
 H        -0.259895         0.931032        -0.670759
 H        -0.483532        -0.557826         0.269045
 H         1.999330        -0.152508         2.162650
 H         1.470507        -1.795333         1.203238
 H         4.583055        -0.250803         2.310513
 H         5.245490        -1.284498         1.065312
 H         5.730311         0.686943         0.106817
 H         4.315565         1.971704        -1.254330
 H         1.771385         1.705521        -1.340005
