19
Iteration:  4178
 C         0.032026         0.335730         0.171217
 C         1.517474         0.025582         0.072163
 C         1.984376        -1.066775         1.126837
 O         3.341563        -1.450083         0.805855
 C         4.341012        -0.543483         1.298636
 C         4.778959         0.394321         0.254557
 C         3.940617         1.240703        -0.366040
 C         2.418898         1.051348        -0.441479
 O         2.007062        -0.128866        -1.234571
 H        -0.377248        -0.013079        -0.783773
 H        -0.484400        -0.262161         0.880688
 H        -0.191811         1.432460         0.389825
 H         1.791422        -0.792295         2.219294
 H         1.409208        -1.924305         0.898778
 H         3.860511         0.030880         2.035172
 H         5.127061        -1.176896         1.688519
 H         5.892448         0.272825        -0.138662
 H         4.262305         1.959159        -1.072479
 H         1.924840         1.965651        -0.608102
