19
Iteration:   878charge 0 multiplicity 1
 C         0.047913         0.334361         0.211252
 C         1.527919        -0.015141         0.051250
 C         2.056832        -0.815064         1.203468
 O         3.344616        -1.355990         1.065220
 C         4.474351        -0.477459         1.440517
 C         4.780933         0.459343         0.308936
 C         3.882122         0.993980        -0.637496
 C         2.403027         0.881148        -0.723229
 O         1.816855        -0.250793        -1.319130
 H        -0.143021         0.819321         1.127975
 H        -0.200209         1.030378        -0.606758
 H        -0.548912        -0.547891         0.171700
 H         2.110291        -0.092533         2.067690
 H         1.352283        -1.725395         1.357141
 H         4.125251         0.121342         2.289573
 H         5.268856        -1.105590         1.709061
 H         5.838768         0.757935         0.198325
 H         4.501960         1.725704        -1.369175
 H         1.976438         1.859476        -1.098612
