19
Iteration:   321
 C         0.231808         0.479846         0.400845
 C         1.598418        -0.001855         0.029064
 C         2.027996        -0.896292         1.158310
 O         3.327302        -1.443193         1.214950
 C         4.367096        -0.495379         1.314330
 C         4.620731         0.444622         0.199314
 C         3.801141         1.236486        -0.587787
 C         2.367590         0.890051        -0.889119
 O         1.985259        -0.431045        -1.322270
 H         0.211599         1.016220         1.374416
 H        -0.247855         1.212735        -0.336026
 H        -0.548986        -0.263193         0.514058
 H         1.673442        -0.419658         2.025316
 H         1.375941        -1.726187         1.148157
 H         4.312743         0.042405         2.275853
 H         5.282962        -1.110878         1.439801
 H         5.610239         0.943648         0.315751
 H         4.331362         2.152295        -1.215244
 H         1.768433         1.709906        -1.284433
