19
Iteration:   409
 C        -0.040182         0.461484         0.253318
 C         1.461561         0.003411         0.086905
 C         2.023315        -0.904792         1.198671
 O         3.351116        -1.323708         1.030400
 C         4.380555        -0.435047         1.316085
 C         4.768430         0.517596         0.199785
 C         3.913854         0.998159        -0.626920
 C         2.463718         0.883155        -0.679890
 O         2.003722        -0.384320        -1.179530
 H        -0.154741         0.778149         1.335969
 H        -0.223695         1.192220        -0.512706
 H        -0.758239        -0.374335         0.067949
 H         1.910636        -0.423610         2.251154
 H         1.482278        -1.842118         1.196573
 H         4.033593         0.149284         2.266465
 H         5.326238        -1.055126         1.556375
 H         5.819163         0.637481         0.075355
 H         4.239990         1.740568        -1.574577
 H         1.942308         1.707434        -1.206903
