19
Iteration:  3247charge 0 multiplicity 1
 C         0.036455         0.279162         0.270221
 C         1.543360         0.025838         0.058100
 C         2.030888        -0.953928         1.060385
 O         3.329210        -1.443846         0.834599
 C         4.360775        -0.623677         1.298098
 C         4.798346         0.482003         0.337299
 C         3.927532         1.197670        -0.439635
 C         2.426079         1.025044        -0.521426
 O         1.909522        -0.134722        -1.263393
 H        -0.424729         1.158234        -0.215507
 H        -0.495018        -0.523900        -0.061908
 H        -0.186402         0.302424         1.245770
 H         1.881854        -0.634641         2.058906
 H         1.329873        -1.841183         0.943147
 H         4.035133        -0.313501         2.378907
 H         5.302270        -1.288130         1.449615
 H         5.816846         0.692799         0.284410
 H         4.412630         1.952659        -1.172365
 H         1.974619         2.044744        -0.770714
