19
Iteration:  2533
 C         0.069217         0.406509         0.331831
 C         1.498071         0.064360         0.024778
 C         2.076245        -0.762055         1.126515
 O         3.323891        -1.470087         0.906905
 C         4.444943        -0.658107         1.239999
 C         4.692525         0.640249         0.508034
 C         3.858147         1.188209        -0.364402
 C         2.433547         0.820573        -0.783455
 O         1.885827        -0.384514        -1.369004
 H        -0.413504        -0.479022         0.105354
 H        -0.103276         0.665996         1.399168
 H        -0.263896         1.295990        -0.289859
 H         2.300788        -0.052972         1.975672
 H         1.383427        -1.531877         1.510512
 H         4.523323        -0.597780         2.337884
 H         5.257624        -1.412684         0.967024
 H         5.699524         1.175339         0.709105
 H         4.209989         1.995792        -0.975682
 H         2.118261         1.683238        -1.311652
