19
Iteration:  4975charge 0 multiplicity 1
 C         0.012481         0.371225         0.103739
 C         1.486740         0.079543         0.079252
 C         2.019045        -1.092500         1.034785
 O         3.335004        -1.542088         0.736233
 C         4.385110        -0.612123         1.296930
 C         4.801833         0.487577         0.318735
 C         3.884990         1.276739        -0.303681
 C         2.430072         1.076489        -0.336810
 O         1.996149        -0.142581        -1.215776
 H        -0.450395         0.466823         1.114005
 H        -0.235770         1.369469        -0.429396
 H        -0.525134        -0.474782        -0.317825
 H         1.756709        -0.869767         2.083099
 H         1.391282        -2.019240         0.773544
 H         4.141014        -0.309578         2.303962
 H         5.176075        -1.370848         1.466066
 H         5.922771         0.661490         0.102098
 H         4.293703         2.013319        -1.024890
 H         1.939099         1.921747        -0.672850
