19
Iteration:  4799charge 0 multiplicity 1
 C         0.097495         0.129269         0.174718
 C         1.530965         0.096963        -0.005631
 C         2.016559        -1.018010         1.062840
 O         3.309283        -1.619542         0.965778
 C         4.387941        -0.752128         1.310420
 C         4.681917         0.444858         0.330481
 C         3.897123         1.272283        -0.364217
 C         2.427114         1.220004        -0.423628
 O         1.996430         0.113989        -1.377281
 H        -0.271925         0.208809         1.261736
 H        -0.338709         1.067593        -0.258023
 H        -0.458974        -0.661480        -0.326524
 H         1.980074        -0.399788         2.043547
 H         1.327747        -1.881792         1.029633
 H         4.125091        -0.371778         2.321830
 H         5.222585        -1.482876         1.311243
 H         5.695545         0.424358         0.050772
 H         4.344433         1.842579        -1.174557
 H         1.962767         2.108106        -0.655321
