19
Iteration:  3364charge 0 multiplicity 1
 C         0.026590         0.349559         0.263611
 C         1.556755         0.051743         0.045502
 C         2.058277        -0.915487         1.109038
 O         3.313876        -1.545492         0.893748
 C         4.479298        -0.784659         1.162167
 C         4.643959         0.515406         0.399347
 C         3.858910         1.306577        -0.314368
 C         2.359122         1.077071        -0.595713
 O         2.004430        -0.179669        -1.298985
 H        -0.407181         0.261980        -0.842149
 H        -0.414424        -0.479619         0.869898
 H        -0.281456         1.330378         0.848562
 H         1.856454        -0.452009         2.052654
 H         1.439442        -1.779737         1.111395
 H         4.651342        -0.581691         2.357868
 H         5.338230        -1.375392         0.891279
 H         5.668523         0.842112         0.300199
 H         4.311300         2.241784        -0.788805
 H         1.896216         1.865548        -1.112546
