19
Iteration:  3689
 C         0.082483         0.653519         0.336291
 C         1.533044         0.049550         0.125523
 C         2.084627        -1.104142         0.990227
 O         3.404848        -1.438179         0.656355
 C         4.421673        -0.663718         1.301982
 C         4.648143         0.711876         0.592996
 C         3.817859         1.098846        -0.391988
 C         2.417967         0.850118        -0.631795
 O         1.907275        -0.315300        -1.301410
 H        -0.007740         1.493197        -0.169978
 H        -0.868283         0.028248        -0.046850
 H         0.013721         0.647788         1.403127
 H         2.014373        -0.789505         2.110074
 H         1.573951        -2.124254         0.823893
 H         4.079152        -0.565359         2.413032
 H         5.417608        -1.163259         1.227154
 H         5.538385         1.213299         0.718724
 H         4.259738         1.949844        -0.880151
 H         1.863018         1.682443        -1.126469
