19
Iteration:  4168charge 0 multiplicity 1
 C         0.026621         0.294665         0.212925
 C         1.514982        -0.031127         0.095879
 C         2.018661        -1.078224         1.058040
 O         3.325402        -1.405550         0.837267
 C         4.341722        -0.560729         1.397030
 C         4.739101         0.389342         0.261516
 C         3.909146         1.192032        -0.434499
 C         2.448404         1.048995        -0.503678
 O         1.991662        -0.046016        -1.294772
 H        -0.573460         0.297236        -0.678233
 H        -0.405320        -0.289233         1.019260
 H        -0.043942         1.395732         0.538995
 H         1.798051        -0.723002         2.148857
 H         1.449532        -1.930043         0.944097
 H         4.208728        -0.136262         2.415632
 H         5.192290        -1.267834         1.591934
 H         5.917573         0.483297         0.195630
 H         4.348486         1.951151        -1.022009
 H         1.998854         1.863539        -0.846202
