19
Iteration:  3954charge 0 multiplicity 1
 C         0.020901         0.370931         0.161777
 C         1.500166         0.113430         0.106105
 C         2.038160        -1.052152         1.160741
 O         3.316834        -1.542953         0.946508
 C         4.428234        -0.691091         1.179178
 C         4.706415         0.500442         0.275461
 C         3.816230         1.234658        -0.371175
 C         2.395797         1.107189        -0.537628
 O         2.083205        -0.142469        -1.265831
 H        -0.299589         0.846031        -0.743799
 H        -0.307935        -0.750085         0.186293
 H        -0.288646         0.928724         1.036704
 H         1.782712        -0.702551         2.242008
 H         1.276182        -1.848998         0.739974
 H         4.468838        -0.373244         2.226056
 H         5.220676        -1.412217         1.203924
 H         5.759637         0.760113         0.432740
 H         4.247770         1.982121        -0.990196
 H         1.819074         2.012896        -0.875569
