19
Iteration:  1924charge 0 multiplicity 1
 C         0.138191         0.441912         0.173037
 C         1.538114         0.008114        -0.013369
 C         2.151568        -0.708142         1.243102
 O         3.328998        -1.381352         1.098393
 C         4.547423        -0.705194         1.234188
 C         4.659820         0.644079         0.486105
 C         3.798524         1.124293        -0.445147
 C         2.403861         0.788346        -0.893702
 O         1.794938        -0.457731        -1.333501
 H         0.124421         1.271229         1.036462
 H        -0.350612         0.881256        -0.696165
 H        -0.451680        -0.280372         0.636279
 H         2.197852         0.176294         1.908641
 H         1.371973        -1.329208         1.543108
 H         4.475985        -0.471890         2.363718
 H         5.316212        -1.532774         1.013267
 H         5.488030         1.277740         0.753238
 H         3.908594         2.144352        -0.787636
 H         2.029281         1.626095        -1.382560
