19
Iteration:  4013charge 0 multiplicity 1
 C         0.030564         0.218480         0.281458
 C         1.506958        -0.003849        -0.003208
 C         2.078104        -0.942665         1.011416
 O         3.353904        -1.534348         1.022469
 C         4.464659        -0.625090         1.396228
 C         4.704004         0.379437         0.314707
 C         3.872714         1.056084        -0.416574
 C         2.379599         1.074738        -0.539088
 O         1.940279         0.147455        -1.447173
 H        -0.413396         0.991293        -0.499895
 H        -0.564115        -0.705431         0.055983
 H        -0.261281         0.535120         1.348245
 H         1.949602        -0.452432         2.051340
 H         1.488450        -1.782690         1.097017
 H         4.220068        -0.102216         2.273113
 H         5.369212        -1.245158         1.521149
 H         5.760247         0.679060         0.118360
 H         4.268359         1.809362        -1.186223
 H         1.984432         2.056714        -0.488038
