19
Iteration:  2304
 C         0.224727         0.495960         0.386443
 C         1.551852        -0.005227        -0.013125
 C         2.103380        -0.869141         1.133722
 O         3.353444        -1.393440         1.117901
 C         4.405074        -0.538355         1.433491
 C         4.615487         0.578091         0.388703
 C         3.783412         1.079625        -0.586910
 C         2.349027         0.853040        -0.848987
 O         1.883298        -0.391918        -1.433376
 H         0.419430         0.693631         1.383539
 H        -0.042638         1.321344        -0.249189
 H        -0.631612        -0.316963         0.253517
 H         1.968700        -0.238098         2.023189
 H         1.447579        -1.756271         1.230982
 H         4.340482        -0.108604         2.455674
 H         5.313968        -1.120173         1.329166
 H         5.734363         0.826984         0.484748
 H         4.249229         1.821410        -1.260584
 H         1.957293         1.779717        -1.287320
