19
Iteration:  2947
 C         0.137049         0.371590         0.263179
 C         1.596902         0.058573         0.005609
 C         2.061284        -0.906510         1.138765
 O         3.264864        -1.512262         0.972257
 C         4.414765        -0.792072         1.093646
 C         4.573334         0.543278         0.438169
 C         3.786799         1.367961        -0.331003
 C         2.465454         1.061238        -0.657118
 O         1.988611        -0.331567        -1.300704
 H        -0.026105         1.281565        -0.103126
 H        -0.482731        -0.322396        -0.173426
 H        -0.060029         0.373918         1.282599
 H         1.951237        -0.286463         1.974101
 H         1.369132        -1.730040         1.330787
 H         4.786391        -0.643613         2.238439
 H         5.251272        -1.464953         0.664145
 H         5.508753         0.998941         0.470746
 H         4.245180         2.362431        -0.636858
 H         1.916745         1.950159        -1.167859
