19
Iteration:   962
 C         0.122201         0.349160         0.245754
 C         1.567990         0.020693        -0.051790
 C         2.132710        -0.647213         1.256822
 O         3.254341        -1.433232         0.999058
 C         4.399240        -0.644164         1.336307
 C         4.675512         0.574920         0.417142
 C         3.846901         1.120595        -0.506961
 C         2.387319         0.892577        -0.873986
 O         1.925516        -0.432471        -1.277330
 H        -0.009549         1.250222         0.998690
 H        -0.399077         0.578751        -0.665108
 H        -0.480975        -0.486868         0.765707
 H         2.196593         0.176640         1.956247
 H         1.430994        -1.286971         1.772754
 H         4.571612        -0.312204         2.437281
 H         5.353228        -1.335782         1.226937
 H         5.724889         1.053246         0.658291
 H         4.219990         1.998200        -1.076114
 H         1.873379         1.678286        -1.466799
