19
Iteration:  4702
 C         0.231405         0.567836         0.285072
 C         1.573864         0.067976         0.050469
 C         2.116060        -0.996766         1.047909
 O         3.361151        -1.562506         0.658416
 C         4.323838        -0.727466         1.215894
 C         4.604863         0.680297         0.664860
 C         3.807155         1.259946        -0.224469
 C         2.412188         0.930653        -0.719132
 O         1.897614        -0.340148        -1.280291
 H        -0.504493        -0.080103        -0.162568
 H         0.006615         0.743745         1.387812
 H        -0.095119         1.467230        -0.168907
 H         2.122474        -0.686592         2.124586
 H         1.404511        -1.748549         0.885645
 H         4.093382        -0.700898         2.323444
 H         5.262379        -1.313713         0.973334
 H         5.559349         0.956034         0.864233
 H         4.126539         2.179350        -0.730731
 H         1.997665         1.702378        -1.360886
