19
Iteration:  1094charge 0 multiplicity 1
 C         0.006359         0.253285         0.067367
 C         1.514060         0.009117         0.018566
 C         2.053942        -0.590732         1.337024
 O         3.235360        -1.345730         1.171508
 C         4.555565        -0.706312         1.212316
 C         4.722949         0.487491         0.280720
 C         3.845122         1.160971        -0.488230
 C         2.440743         0.929930        -0.731366
 O         1.947188        -0.378743        -1.250492
 H        -0.356659         0.833885         1.034622
 H        -0.194419         0.894258        -0.884060
 H        -0.512743        -0.743487        -0.097727
 H         2.017959         0.280614         2.104428
 H         1.301396        -1.328153         1.667463
 H         4.825790        -0.404668         2.228451
 H         5.213058        -1.621287         0.819145
 H         5.743058         0.942596         0.295852
 H         4.362608         1.906936        -0.980880
 H         1.956472         1.774546        -1.230733
