19
Iteration:   561charge 0 multiplicity 1
 C         0.128276         0.376066         0.227409
 C         1.553318        -0.020623        -0.006193
 C         1.979328        -0.850402         1.229993
 O         3.286818        -1.436840         1.293929
 C         4.401148        -0.587551         1.219939
 C         4.688889         0.504373         0.217575
 C         3.824897         1.208140        -0.577040
 C         2.420042         0.963942        -0.738283
 O         1.999621        -0.346934        -1.328639
 H         0.025426         1.155714         1.096846
 H        -0.293457         0.923255        -0.606616
 H        -0.514065        -0.550392         0.442388
 H         1.899416        -0.243478         2.158310
 H         1.315433        -1.704826         1.426393
 H         4.709203        -0.258930         2.275941
 H         5.340266        -1.263288         0.959843
 H         5.700758         0.833734         0.351955
 H         4.321727         2.192468        -1.054361
 H         1.904821         1.794159        -1.331248
