19
Iteration:   475
 C         0.045126         0.485715         0.340446
 C         1.485548        -0.019774        -0.017036
 C         2.025485        -0.827451         1.166906
 O         3.379004        -1.317917         1.129250
 C         4.535879        -0.563843         1.351712
 C         4.700646         0.580632         0.401129
 C         3.817481         0.989408        -0.548057
 C         2.397094         0.822229        -0.830801
 O         1.896620        -0.372860        -1.378215
 H         0.193183         1.267758         1.159953
 H        -0.357505         0.879982        -0.543386
 H        -0.623078        -0.350601         0.719988
 H         1.749318        -0.172254         2.084844
 H         1.537552        -1.757276         1.037901
 H         4.652759        -0.183857         2.355310
 H         5.325258        -1.398509         1.136024
 H         5.637555         1.068025         0.352667
 H         4.317894         1.819725        -1.326269
 H         2.012892         1.742920        -1.323030
