19
Iteration:  3020
 C        -0.043822         0.243794         0.271885
 C         1.460817         0.058094         0.083660
 C         2.038943        -0.952764         1.071540
 O         3.346307        -1.374938         0.736487
 C         4.388860        -0.636281         1.315316
 C         4.798933         0.418321         0.349558
 C         3.956147         1.076872        -0.375732
 C         2.436931         1.038293        -0.465510
 O         1.956029        -0.047082        -1.289836
 H        -0.378318         0.471520        -0.851783
 H        -0.359264        -0.837960         0.588794
 H        -0.552618         0.956001         1.058260
 H         1.971186        -0.379482         2.043663
 H         1.369597        -1.858391         1.151172
 H         4.186133        -0.100758         2.306091
 H         5.217364        -1.273510         1.532897
 H         5.842405         0.528136         0.155049
 H         4.297651         1.856003        -1.144676
 H         2.075567         1.916805        -0.958460
