19
Iteration:   721charge 0 multiplicity 1
 C         0.143925         0.343501         0.341647
 C         1.496437        -0.017987        -0.097710
 C         2.098426        -0.734986         1.218448
 O         3.331302        -1.400213         1.150621
 C         4.483011        -0.596203         1.396211
 C         4.682392         0.534178         0.461566
 C         3.843612         1.035512        -0.551386
 C         2.386643         0.893877        -0.876534
 O         1.838486        -0.295132        -1.483411
 H         0.196988         1.314570         0.844204
 H        -0.505028         0.419509        -0.502150
 H        -0.261179        -0.406596         0.992365
 H         2.053376        -0.033197         2.012158
 H         1.247364        -1.370475         1.462050
 H         4.468052        -0.277627         2.512276
 H         5.406384        -1.248784         1.351439
 H         5.666710         1.011359         0.479358
 H         4.380294         1.883918        -1.190716
 H         1.957265         1.803277        -1.309375
