19
Iteration:   899
 C         0.054354         0.552487         0.104401
 C         1.487225        -0.020824         0.064891
 C         1.997738        -0.929061         1.240186
 O         3.377955        -1.324484         1.094007
 C         4.446831        -0.457677         1.302642
 C         4.796395         0.482946         0.192062
 C         3.822974         1.121108        -0.495478
 C         2.405633         0.858841        -0.616452
 O         1.900780        -0.459220        -1.247618
 H        -0.152590         1.094163         0.991878
 H        -0.094980         1.127493        -0.785519
 H        -0.592500        -0.297275         0.098148
 H         1.900460        -0.562185         2.306543
 H         1.423880        -1.889295         0.989576
 H         4.359367        -0.031503         2.260644
 H         5.298976        -1.117072         1.335202
 H         5.869993         0.722078         0.100876
 H         4.332376         1.855105        -1.277503
 H         2.005116         1.810428        -1.020903
