19
Iteration:  2766
 C         0.009265         0.331071         0.225718
 C         1.460069         0.094738         0.127842
 C         2.045006        -0.939557         1.025643
 O         3.377749        -1.395207         0.737706
 C         4.410655        -0.643581         1.327541
 C         4.809302         0.509894         0.485447
 C         3.877083         1.054389        -0.401783
 C         2.444425         0.954990        -0.576805
 O         1.892332        -0.138853        -1.301847
 H        -0.413439         1.038215        -0.536336
 H        -0.475514        -0.650911         0.419872
 H        -0.264940         0.812751         1.208718
 H         1.996087        -0.568260         2.037591
 H         1.402147        -1.863668         1.023358
 H         4.156175        -0.293042         2.319837
 H         5.250473        -1.327884         1.369509
 H         5.928263         0.757529         0.534911
 H         4.305887         1.891039        -0.959426
 H         2.070209         1.883380        -0.923469
