19
Iteration:  4393charge 0 multiplicity 1
 C        -0.047322         0.089690         0.177843
 C         1.517454         0.086753        -0.076266
 C         2.097443        -0.896022         1.090053
 O         3.323081        -1.512229         0.944914
 C         4.468691        -0.856398         1.291579
 C         4.746274         0.383391         0.398745
 C         3.915135         1.159373        -0.336922
 C         2.438765         1.218156        -0.496612
 O         1.874497         0.175261        -1.371537
 H        -0.243349        -0.843341         0.818448
 H        -0.505305         1.004268         0.531291
 H        -0.435814        -0.132144        -0.882778
 H         2.139810        -0.227733         2.054161
 H         1.374092        -1.734914         1.162162
 H         4.283173        -0.533933         2.375594
 H         5.291565        -1.634661         1.098866
 H         5.794631         0.609733         0.528347
 H         4.419920         1.986491        -0.768833
 H         2.026632         2.166023        -0.637211
