19
Iteration:    71
 C         0.111953         0.363664         0.152225
 C         1.550960         0.003727         0.022276
 C         2.139482        -0.602616         1.284241
 O         3.254951        -1.440757         1.096383
 C         4.520030        -0.727327         1.199580
 C         4.678986         0.521361         0.331581
 C         3.742752         1.226639        -0.403266
 C         2.307190         0.969675        -0.710540
 O         1.977002        -0.460410        -1.329110
 H        -0.006908         1.299181         0.744719
 H        -0.448554         0.568245        -0.856478
 H        -0.495219        -0.371742         0.716972
 H         2.304117         0.109590         2.098605
 H         1.339615        -1.313650         1.592211
 H         4.708962        -0.525736         2.253526
 H         5.371114        -1.528170         0.872175
 H         5.725540         0.956430         0.279482
 H         4.264701         1.807617        -1.229242
 H         1.850252         1.819433        -1.216295
