19
Iteration:   444
 C         0.268363         0.438590         0.330137
 C         1.684709         0.013003        -0.005173
 C         2.126950        -0.844259         1.200630
 O         3.342699        -1.538003         1.263012
 C         4.263990        -0.538274         1.282142
 C         4.553660         0.568033         0.266367
 C         3.825475         1.213707        -0.606860
 C         2.442587         0.884628        -0.907613
 O         1.840002        -0.388349        -1.308239
 H         0.020598         1.009459         1.278691
 H        -0.116622         1.100498        -0.327647
 H        -0.416803        -0.479781         0.260306
 H         2.022790        -0.195191         2.154236
 H         1.331651        -1.611412         1.254369
 H         4.124547         0.069013         2.309197
 H         5.189050        -1.039546         1.493678
 H         5.596416         0.787720         0.277397
 H         4.357771         2.059260        -1.317577
 H         1.923032         1.755646        -1.332183
