19
Iteration:  1049charge 0 multiplicity 1
 C         0.091927         0.345219         0.038637
 C         1.562784         0.039769         0.137634
 C         1.989458        -0.658683         1.402562
 O         3.165560        -1.488429         1.102695
 C         4.349340        -0.705951         1.059535
 C         4.585798         0.544847         0.173780
 C         3.845887         1.328534        -0.586968
 C         2.395380         0.985360        -0.818943
 O         2.298646        -0.488318        -0.964048
 H        -0.107757         0.611528         1.237599
 H        -0.200299         1.208257        -0.612511
 H        -0.557480        -0.612322        -0.194911
 H         2.116652        -0.016280         2.385705
 H         1.125218        -1.294809         1.614469
 H         4.304284        -0.335995         2.040300
 H         5.296505        -1.473027         1.085853
 H         5.752487         0.587991         0.289938
 H         4.059583         2.255112        -1.261117
 H         1.887770         1.613215        -1.625741
