19
Iteration:   278charge 0 multiplicity 1
 C        -0.003478         0.559281         0.191029
 C         1.451342        -0.037571         0.082349
 C         2.051895        -0.896933         1.201144
 O         3.384198        -1.406024         1.026674
 C         4.504866        -0.591228         1.317568
 C         4.678427         0.635255         0.374057
 C         3.890084         1.164829        -0.663212
 C         2.420453         0.834679        -0.708563
 O         1.891255        -0.439288        -1.190373
 H         0.057242         1.426875         0.892581
 H        -0.266460         0.940574        -0.824726
 H        -0.665198        -0.232008         0.591716
 H         2.018936        -0.281896         2.132328
 H         1.402171        -1.788656         1.398929
 H         4.649786        -0.321002         2.369073
 H         5.321514        -1.181004         1.099551
 H         5.784082         0.916697         0.311862
 H         4.381584         1.797635        -1.588359
 H         1.927794         1.691855        -1.249169
