19
Iteration:  2378
 C        -0.044473         0.316637         0.092052
 C         1.478170        -0.040415         0.109541
 C         2.072094        -0.634516         1.281792
 O         3.288151        -1.284157         0.874641
 C         4.500412        -0.700344         1.262967
 C         4.787316         0.483023         0.327785
 C         3.855916         1.160119        -0.420770
 C         2.367876         0.921784        -0.705705
 O         1.983102        -0.401159        -1.172019
 H        -0.068052         1.346559         0.269964
 H        -0.527587         0.001737        -0.794655
 H        -0.619137        -0.162154         0.960334
 H         2.118377         0.023692         2.170805
 H         1.342299        -1.451656         1.451546
 H         4.622013        -0.398658         2.392571
 H         5.355032        -1.450913         0.944932
 H         5.936641         0.598620         0.145660
 H         4.296292         2.008511        -0.994777
 H         1.939563         1.844321        -1.117274
