19
Iteration:  1761
 C         0.035974         0.397433         0.440563
 C         1.544339         0.048518         0.031649
 C         2.053372        -0.944142         1.057532
 O         3.335505        -1.381536         1.019407
 C         4.344516        -0.313396         1.553049
 C         4.726552         0.591893         0.336075
 C         3.969993         0.883410        -0.678080
 C         2.520511         0.853629        -0.789273
 O         1.838434        -0.267012        -1.360407
 H        -0.025854         0.470475         1.608937
 H        -0.272897         1.278813        -0.084185
 H        -0.565047        -0.444528         0.167744
 H         1.793941        -0.553385         2.100433
 H         1.514129        -1.875249         1.058489
 H         3.829240         0.010354         2.430476
 H         5.311529        -0.941413         1.650709
 H         5.728225         0.783431         0.181483
 H         4.396038         1.192143        -1.720000
 H         2.110411         1.724044        -1.318456
