19
Iteration:   779charge 0 multiplicity 1
 C         0.084681         0.585752         0.098790
 C         1.522602        -0.004895         0.146551
 C         2.020183        -1.036123         1.271035
 O         3.364065        -1.341041         0.922708
 C         4.357963        -0.421663         1.312216
 C         4.681984         0.514483         0.251994
 C         3.862219         1.106854        -0.643786
 C         2.460941         0.833571        -0.617539
 O         1.940167        -0.436879        -1.104782
 H        -0.242738         1.303206         0.855302
 H         0.143360         1.033038        -0.851320
 H        -0.577705        -0.270772         0.041163
 H         1.913190        -0.658357         2.243000
 H         1.603566        -2.087975         1.098331
 H         4.018883         0.171166         2.274125
 H         5.213985        -0.988745         1.548670
 H         5.736644         0.831861         0.282421
 H         4.466923         1.894438        -1.287237
 H         1.914461         1.747904        -1.075578
