19
Iteration:  4940charge 0 multiplicity 1
 C         0.154151         0.462126         0.327043
 C         1.540444        -0.006205         0.052928
 C         2.061595        -1.116355         1.048138
 O         3.346916        -1.512446         0.756084
 C         4.380640        -0.716443         1.361151
 C         4.596984         0.547667         0.533634
 C         3.854200         1.259494        -0.322467
 C         2.470533         0.988247        -0.705318
 O         1.910664        -0.099952        -1.426992
 H         0.317919         0.923896         1.320733
 H        -0.267063         1.169087        -0.387461
 H        -0.524426        -0.343129         0.403764
 H         2.028027        -0.849812         2.110428
 H         1.471645        -2.115299         0.844268
 H         4.146033        -0.573377         2.410516
 H         5.293554        -1.244329         1.195736
 H         5.476876         1.059302         0.937475
 H         4.159228         2.253369        -0.668088
 H         2.019306         1.968625        -0.949298
