19
Iteration:   249
 C         0.095319         0.327327         0.200813
 C         1.484306         0.050488         0.109616
 C         2.148886        -0.652577         1.220227
 O         3.318015        -1.260643         0.819805
 C         4.448421        -0.614922         1.304461
 C         4.793466         0.468099         0.351087
 C         3.882001         1.023608        -0.429250
 C         2.378593         0.825836        -0.773381
 O         1.812076        -0.395607        -1.222005
 H        -0.192767         1.212165         0.866756
 H        -0.272106         0.432999        -0.751919
 H        -0.401391        -0.589211         0.687435
 H         2.207273         0.050529         2.107023
 H         1.386102        -1.381437         1.660328
 H         4.230625        -0.029356         2.269327
 H         5.257456        -1.374621         1.681702
 H         5.711647         0.974856         0.506556
 H         4.151144         1.800446        -1.030197
 H         2.011946         1.736903        -1.331930
