19
Iteration:  2251charge 0 multiplicity 1
 C         0.072426         0.353705         0.250809
 C         1.555890         0.032878         0.142593
 C         1.996187        -1.028199         1.139938
 O         3.361302        -1.283725         0.945317
 C         4.365748        -0.312170         1.479865
 C         4.740546         0.438285         0.217462
 C         3.934057         0.909733        -0.690374
 C         2.438054         0.971411        -0.681987
 O         1.877489        -0.269466        -1.183190
 H        -0.469746         0.598736         1.233457
 H        -0.019518         1.217560        -0.466189
 H        -0.384817        -0.654933        -0.166938
 H         1.718745        -0.719336         2.229086
 H         1.484241        -2.011164         0.930841
 H         3.902082         0.428997         2.272635
 H         5.193915        -0.769486         1.968882
 H         5.886254         0.460717         0.053153
 H         4.453029         1.326790        -1.606527
 H         2.126559         2.060847        -0.899051
