19
Iteration:  4536charge 0 multiplicity 1
 C         0.146820         0.398824         0.366152
 C         1.543050         0.030969        -0.025700
 C         2.075087        -1.071888         0.941107
 O         3.368937        -1.547011         0.854094
 C         4.412824        -0.647852         1.477550
 C         4.681025         0.567550         0.565569
 C         3.948508         1.081739        -0.418897
 C         2.442973         1.029401        -0.708353
 O         1.721993        -0.046954        -1.447001
 H        -0.434976        -0.602466         0.208790
 H         0.192943         0.753556         1.408973
 H        -0.472650         1.124738        -0.305550
 H         2.022659        -0.543884         1.959719
 H         1.529758        -1.983247         1.015434
 H         4.110439        -0.235145         2.372085
 H         5.381611        -1.288030         1.459015
 H         5.623689         1.071863         0.963874
 H         4.417605         1.996484        -0.917201
 H         2.110535         2.016835        -1.021223
