19
Iteration:  3947charge 0 multiplicity 1
 C         0.049684         0.396130         0.153639
 C         1.527191         0.061881         0.104737
 C         1.974775        -1.022427         1.152298
 O         3.315533        -1.522923         0.842543
 C         4.453212        -0.676863         1.194519
 C         4.718795         0.502692         0.328028
 C         3.820557         1.272521        -0.345446
 C         2.395636         1.066704        -0.573314
 O         2.058838        -0.196205        -1.196428
 H        -0.339002         0.938930        -0.805007
 H        -0.620687        -0.534889         0.188217
 H        -0.210147         0.899152         1.108881
 H         1.865314        -0.682615         2.170021
 H         1.395126        -1.871596         0.967899
 H         4.376083        -0.337368         2.256216
 H         5.297594        -1.390825         1.150335
 H         5.739304         0.806392         0.365766
 H         4.324150         2.046836        -0.987063
 H         1.853909         1.898488        -0.885192
