19
Iteration:  4186
 C         0.022612         0.352860         0.131958
 C         1.513817         0.033728         0.166304
 C         1.978705        -1.046917         1.077589
 O         3.323248        -1.511683         0.817976
 C         4.304911        -0.553161         1.232662
 C         4.840753         0.417603         0.221161
 C         3.916591         1.244896        -0.329284
 C         2.455223         1.092179        -0.382245
 O         2.019641        -0.178451        -1.200293
 H        -0.296175        -0.043994        -0.888713
 H        -0.477713        -0.195008         0.907202
 H        -0.317577         1.382142         0.173635
 H         1.969657        -0.701607         2.075868
 H         1.358156        -2.043432         0.917072
 H         3.763285         0.128778         1.903962
 H         5.136791        -0.968742         1.767597
 H         5.858672         0.500904        -0.199796
 H         4.293926         1.876307        -1.168408
 H         1.786977         2.085322        -0.742523
