19
Iteration:  4402
 C         0.037527         0.022870         0.172438
 C         1.521044         0.085069        -0.008297
 C         2.025826        -0.925012         1.053215
 O         3.316754        -1.496327         0.907369
 C         4.435398        -0.789712         1.303606
 C         4.792645         0.311376         0.379568
 C         3.953983         1.177615        -0.282113
 C         2.440952         1.272276        -0.508855
 O         1.835336         0.150514        -1.398827
 H        -0.511941        -0.781991         0.860056
 H        -0.312266         1.040622         0.594678
 H        -0.537371        -0.102354        -0.791224
 H         2.001014        -0.091097         1.836826
 H         1.329705        -1.656237         1.246319
 H         4.600390        -0.479877         2.450621
 H         5.258552        -1.700169         1.358208
 H         5.758479         0.712715         0.442876
 H         4.371226         2.000734        -0.799036
 H         2.064354         2.220830        -0.618719
