19
Iteration:  2934charge 0 multiplicity 1
 C         0.088230         0.388297         0.294178
 C         1.546624         0.059428         0.012256
 C         2.080461        -0.765462         1.129648
 O         3.272500        -1.525826         0.901490
 C         4.481746        -0.767595         1.076340
 C         4.643380         0.573546         0.522787
 C         3.790072         1.283115        -0.243539
 C         2.415144         0.935108        -0.792110
 O         1.994603        -0.309372        -1.298341
 H        -0.254761         1.331290         0.085946
 H        -0.529407        -0.328915        -0.135447
 H        -0.036601         0.253896         1.329290
 H         2.210519        -0.248059         2.068952
 H         1.247482        -1.530273         1.156122
 H         4.653283        -0.688863         2.232436
 H         5.262457        -1.420841         0.632055
 H         5.597247         0.896980         0.858809
 H         4.105097         2.336468        -0.544080
 H         1.868235         1.752534        -1.294413
