19
Iteration:  4821
 C         0.081704         0.236004         0.169984
 C         1.568441         0.043208         0.048588
 C         1.962494        -1.052878         0.999317
 O         3.318485        -1.543233         0.876949
 C         4.378437        -0.641211         1.259212
 C         4.749599         0.380334         0.263152
 C         3.926998         1.237078        -0.279535
 C         2.446938         1.140899        -0.406060
 O         1.952174         0.039103        -1.287957
 H        -0.432889         0.745998         1.100283
 H        -0.301677         0.731095        -0.786315
 H        -0.359587        -0.779135         0.116969
 H         1.755686        -0.657285         2.088575
 H         1.378521        -1.968398         0.770859
 H         4.032660        -0.025256         2.151888
 H         5.110370        -1.434066         1.496293
 H         5.768681         0.639844         0.275783
 H         4.352160         2.157086        -0.680133
 H         1.941508         2.014718        -0.576350
