19
Iteration:  4374charge 0 multiplicity 1
 C        -0.030191         0.213987         0.149845
 C         1.500153         0.132660         0.135633
 C         2.029072        -0.924335         1.098094
 O         3.346210        -1.643142         0.889988
 C         4.501171        -0.773014         1.216970
 C         4.706223         0.476037         0.442562
 C         3.855652         1.200216        -0.263862
 C         2.391922         1.104955        -0.509820
 O         2.007152         0.069373        -1.421582
 H        -0.530222        -0.476130         0.752476
 H        -0.252012         1.210108         0.404661
 H        -0.493992         0.023286        -0.839538
 H         2.150061        -0.282392         1.945836
 H         1.188439        -1.736054         1.083961
 H         4.529528        -0.613303         2.261359
 H         5.238765        -1.450406         0.986181
 H         5.830791         0.688752         0.357770
 H         4.242445         1.944157        -0.976262
 H         1.942707         2.184444        -0.663654
