19
Iteration:  4146
 C         0.062017         0.338464         0.364136
 C         1.525320         0.054186        -0.026593
 C         2.039875        -1.000568         0.964593
 O         3.375592        -1.549542         0.960204
 C         4.420987        -0.607680         1.346865
 C         4.736455         0.581515         0.501722
 C         3.902322         1.057856        -0.470053
 C         2.438548         1.036673        -0.611162
 O         1.842471        -0.061260        -1.433673
 H        -0.536979         0.467788        -0.546757
 H        -0.265603        -0.528659         0.922665
 H        -0.194014         1.320221         0.907896
 H         1.659315        -0.681497         2.023544
 H         1.444641        -1.806154         0.743751
 H         4.208792        -0.202233         2.452719
 H         5.302722        -1.254244         1.614217
 H         5.908986         0.750891         0.565985
 H         4.386885         1.734283        -1.128707
 H         2.035540         1.923143        -0.782946
