19
Iteration:  3541
 C         0.060388         0.350100         0.302797
 C         1.547932         0.065548         0.147374
 C         2.053775        -0.982204         1.074971
 O         3.318295        -1.382396         0.683306
 C         4.361277        -0.632526         1.284217
 C         4.727957         0.523290         0.446441
 C         3.934565         1.129775        -0.407442
 C         2.457930         0.991684        -0.641669
 O         1.909456        -0.211366        -1.225301
 H        -0.463359         1.288679        -0.284661
 H        -0.508017        -0.546218        -0.196051
 H        -0.324669         0.457306         1.382347
 H         2.050764        -0.682287         2.240228
 H         1.404277        -1.841506         0.916311
 H         4.130448        -0.248459         2.330523
 H         5.195374        -1.204131         1.275228
 H         5.812318         0.663786         0.606300
 H         4.324048         1.940335        -0.968872
 H         1.957233         1.801671        -1.075912
