19
Iteration:   413
 C         0.036857         0.470618         0.249691
 C         1.496814        -0.001292         0.076359
 C         2.024166        -0.901365         1.235259
 O         3.349837        -1.352905         1.040330
 C         4.359312        -0.447032         1.333559
 C         4.755439         0.510445         0.205969
 C         3.878854         1.034730        -0.665592
 C         2.445597         0.895395        -0.707084
 O         2.006627        -0.391609        -1.194796
 H        -0.165825         0.770798         1.295755
 H        -0.322308         1.242349        -0.434317
 H        -0.676688        -0.383242         0.093746
 H         1.919758        -0.488484         2.188918
 H         1.376518        -1.826357         1.297258
 H         4.052715         0.106639         2.240431
 H         5.191815        -0.992629         1.588609
 H         5.831154         0.710422         0.050568
 H         4.186097         1.754197        -1.411323
 H         1.891186         1.748153        -1.133432
