19
Iteration:   267
 C        -0.000592         0.484160         0.187528
 C         1.479502         0.041237         0.117430
 C         2.105448        -0.819697         1.292431
 O         3.370530        -1.355925         0.901495
 C         4.498890        -0.563011         1.312926
 C         4.697065         0.608305         0.365902
 C         3.871956         0.975532        -0.556642
 C         2.407103         0.838572        -0.707596
 O         1.902201        -0.422749        -1.264937
 H        -0.141667         1.398025         0.810590
 H        -0.419126         0.729448        -0.823476
 H        -0.775357        -0.205021         0.564493
 H         2.152260        -0.126397         2.186689
 H         1.447146        -1.681242         1.571255
 H         4.372473        -0.378864         2.389291
 H         5.313241        -1.179184         1.193513
 H         5.755441         1.009123         0.299695
 H         4.252134         1.832369        -1.316557
 H         1.914250         1.742917        -1.164101
