19
Iteration:  2556
 C         0.129582         0.401246         0.335906
 C         1.551943        -0.004851        -0.033984
 C         2.038472        -0.866161         1.137200
 O         3.371420        -1.439757         1.029267
 C         4.455657        -0.701485         1.268577
 C         4.589135         0.532172         0.430280
 C         3.837312         1.174895        -0.451917
 C         2.354957         1.020882        -0.815166
 O         1.946719        -0.312885        -1.352792
 H        -0.325289        -0.416222         0.738537
 H         0.218238         1.201975         1.127425
 H        -0.413372         0.911913        -0.482257
 H         1.940239        -0.335052         2.140366
 H         1.423164        -1.810524         1.155375
 H         4.471423        -0.277838         2.306581
 H         5.261534        -1.551040         1.294533
 H         5.592685         1.045504         0.550672
 H         4.217046         2.142753        -0.718125
 H         1.983526         1.916602        -1.354207
