19
Iteration:   572charge 0 multiplicity 1
 C         0.077550         0.385990         0.224979
 C         1.581081        -0.014586        -0.020409
 C         2.045073        -0.822701         1.262913
 O         3.314115        -1.446570         1.384828
 C         4.486410        -0.591815         1.175875
 C         4.652030         0.485613         0.270238
 C         3.833502         1.158567        -0.498065
 C         2.426351         0.876938        -0.768433
 O         1.932845        -0.269692        -1.464178
 H        -0.044545         0.876861         1.312512
 H        -0.355717         0.940762        -0.586272
 H        -0.602431        -0.561838         0.305476
 H         1.922106         0.063682         1.926807
 H         1.241189        -1.559433         1.337702
 H         4.677763        -0.061909         2.208814
 H         5.249797        -1.470643         0.977289
 H         5.611224         0.937418         0.364329
 H         4.147553         2.171416        -1.115662
 H         1.924984         1.851980        -1.181177
