19
Iteration:   733
 C         0.011295         0.313461         0.371302
 C         1.513594         0.043797        -0.075893
 C         2.095243        -0.747373         1.175985
 O         3.331840        -1.361346         1.067730
 C         4.384537        -0.537373         1.392904
 C         4.676530         0.499485         0.419597
 C         3.924281         1.020024        -0.544294
 C         2.466055         0.887100        -0.866946
 O         1.880072        -0.346301        -1.411737
 H         0.154582         1.228769         0.984888
 H        -0.737240         0.525314        -0.278127
 H        -0.292027        -0.386709         1.119303
 H         2.145282        -0.031576         1.929151
 H         1.602927        -1.704906         1.460054
 H         4.340653        -0.046749         2.469896
 H         5.201813        -1.265749         1.315937
 H         5.662017         0.922771         0.582860
 H         4.510885         1.968746        -1.121504
 H         2.102328         1.828350        -1.399390
