19
Iteration:   124
 C         0.049347         0.191133         0.167795
 C         1.484593         0.112682         0.105161
 C         2.052965        -0.457022         1.308150
 O         3.151159        -1.271392         0.915815
 C         4.465020        -0.742066         1.118149
 C         4.783782         0.558800         0.404208
 C         3.957494         1.140714        -0.416571
 C         2.439760         0.851526        -0.774668
 O         1.930007        -0.482631        -1.147350
 H        -0.289777         0.283701         1.140108
 H        -0.575824         0.839178        -0.559528
 H        -0.214051        -0.781958        -0.103622
 H         2.461114         0.328560         2.009610
 H         1.337833        -1.179468         1.746390
 H         4.759475        -0.781513         2.202369
 H         5.066005        -1.452742         0.593175
 H         5.890256         0.780656         0.270757
 H         4.243508         2.025807        -1.039021
 H         2.164525         1.607238        -1.453982
