19
Iteration:  4182charge 0 multiplicity 1
 C         0.031360         0.353571         0.145870
 C         1.511619         0.031694         0.111574
 C         1.974098        -1.056920         1.108698
 O         3.335000        -1.477531         0.810172
 C         4.327416        -0.551500         1.255729
 C         4.820462         0.399760         0.245235
 C         3.930239         1.245864        -0.341994
 C         2.433074         1.076504        -0.414202
 O         2.013060        -0.159304        -1.220431
 H        -0.292412        -0.048331        -0.804551
 H        -0.526288        -0.280595         0.937918
 H        -0.260960         1.388023         0.299061
 H         1.881336        -0.741862         2.195736
 H         1.407868        -1.982998         0.890175
 H         3.703887         0.154281         1.974294
 H         5.214062        -1.107336         1.737236
 H         5.782547         0.371001        -0.173961
 H         4.277225         1.934656        -1.154064
 H         1.858420         1.990844        -0.626211
