19
Iteration:   972
 C         0.002502         0.342395         0.218537
 C         1.477720         0.004423        -0.007786
 C         2.152771        -0.589184         1.236226
 O         3.297517        -1.387662         1.043698
 C         4.528343        -0.657435         1.324651
 C         4.683832         0.550204         0.465208
 C         3.831592         1.062553        -0.475278
 C         2.397954         0.880562        -0.855389
 O         1.907880        -0.424071        -1.371913
 H         0.077759         1.242291         1.002418
 H        -0.616591         0.659388        -0.604158
 H        -0.430062        -0.602227         0.746772
 H         2.507349         0.231808         1.855477
 H         1.365877        -1.172231         1.649357
 H         4.364594        -0.386764         2.416289
 H         5.373005        -1.462503         1.133164
 H         5.712002         1.091686         0.599088
 H         4.340767         1.948033        -0.939384
 H         2.062065         1.777795        -1.445988
