19
Iteration:   755
 C         0.043686         0.390648         0.311343
 C         1.494896         0.111286         0.067149
 C         2.016547        -0.818714         1.147590
 O         3.278577        -1.411005         0.912161
 C         4.390879        -0.484703         1.401153
 C         4.818780         0.592655         0.352552
 C         3.924807         1.087397        -0.580877
 C         2.434882         0.829537        -0.776570
 O         1.927244        -0.438422        -1.213002
 H        -0.107535         1.256140         0.958670
 H        -0.273708         0.640071        -0.631566
 H        -0.455432        -0.489363         0.687109
 H         1.942966        -0.345988         2.094394
 H         1.473872        -1.798184         1.102087
 H         3.968433         0.037232         2.346989
 H         5.194919        -1.186563         1.679485
 H         5.864242         0.911506         0.269282
 H         4.539949         1.820227        -1.369826
 H         2.009344         1.715125        -1.350786
