19
Iteration:  3199charge 0 multiplicity 1
 C         0.151419         0.274664         0.194977
 C         1.604664         0.020905         0.080220
 C         2.010370        -1.177848         0.996687
 O         3.370772        -1.614440         1.169602
 C         4.334932        -0.576647         1.298687
 C         4.638510         0.407060         0.089406
 C         3.874096         1.294319        -0.482075
 C         2.409965         1.115656        -0.387916
 O         1.949493         0.070148        -1.355092
 H        -0.085186         0.931245        -0.624860
 H        -0.547167        -0.614337         0.107495
 H        -0.183200         0.826833         1.200426
 H         1.822093        -0.556204         1.991333
 H         1.303867        -2.074676         1.051837
 H         3.986893         0.033203         2.156184
 H         5.278987        -1.087329         1.643612
 H         5.782311         0.425890        -0.134332
 H         4.238205         2.032384        -1.173496
 H         1.941466         1.970242        -0.686257
