19
Iteration:  2033charge 0 multiplicity 1
 C        -0.056259         0.161554         0.119117
 C         1.504699         0.036551        -0.023232
 C         2.193636        -0.604969         1.269082
 O         3.305849        -1.405644         1.188248
 C         4.509200        -0.657402         1.364994
 C         4.675640         0.410128         0.270070
 C         3.789850         1.013387        -0.558530
 C         2.363060         1.013107        -0.641752
 O         1.978626        -0.161974        -1.381839
 H        -0.087222         0.687280         1.192966
 H        -0.496668         0.920606        -0.544447
 H        -0.466366        -0.749495         0.123284
 H         2.160586         0.194507         2.079378
 H         1.557560        -1.460673         1.575179
 H         4.765853        -0.364371         2.369643
 H         5.312842        -1.386181         1.051851
 H         5.738086         0.667179         0.132892
 H         4.207021         1.671265        -1.275801
 H         1.940538         1.907652        -1.160725
