19
Iteration:   588charge 0 multiplicity 1
 C         0.096839         0.305092         0.198123
 C         1.517302        -0.027016        -0.054456
 C         2.087321        -0.706900         1.226088
 O         3.348088        -1.394021         1.367758
 C         4.574715        -0.733225         1.339581
 C         4.669160         0.515330         0.295182
 C         3.847955         1.133532        -0.516121
 C         2.312566         0.956099        -0.810303
 O         1.831927        -0.254667        -1.494496
 H        -0.080951         0.704813         1.126145
 H        -0.222220         1.157462        -0.474614
 H        -0.565919        -0.503335         0.026892
 H         2.152788         0.034854         2.054434
 H         1.430216        -1.536859         1.514919
 H         4.806859        -0.485522         2.352990
 H         5.427688        -1.415814         1.108014
 H         5.738238         0.842753         0.366024
 H         4.252761         1.907500        -0.990343
 H         1.849115         1.828002        -1.151774
