19
Iteration:  4361charge 0 multiplicity 1
 C         0.038073         0.372760         0.146619
 C         1.537329         0.017949         0.039517
 C         2.054621        -1.020810         1.103648
 O         3.305338        -1.553953         0.845363
 C         4.446054        -0.819508         1.183592
 C         4.699740         0.501651         0.411225
 C         3.832502         1.286923        -0.242302
 C         2.365286         1.117385        -0.509456
 O         2.023860        -0.050079        -1.310467
 H        -0.492505        -0.241773         0.906502
 H        -0.237083         1.362331         0.389711
 H        -0.276372         0.141051        -0.913530
 H         1.963457        -0.652833         2.143775
 H         1.373194        -1.920974         1.276634
 H         4.514382        -0.635465         2.237430
 H         5.335557        -1.408493         0.996498
 H         5.722489         0.875951         0.434632
 H         4.265984         2.130515        -0.730337
 H         1.827358         2.014556        -0.856452
