19
Iteration:  2088charge 0 multiplicity 1
 C         0.065282         0.521388         0.226937
 C         1.510575         0.097555         0.093678
 C         2.018083        -0.960974         1.162629
 O         3.324906        -1.426387         1.014899
 C         4.421255        -0.563733         1.292825
 C         4.699914         0.584109         0.283549
 C         3.844685         1.144178        -0.544749
 C         2.429076         0.895629        -0.790678
 O         2.008917        -0.442067        -1.154139
 H        -0.196704         1.055618         1.260714
 H        -0.220043         1.165308        -0.646389
 H        -0.525502        -0.298828         0.252975
 H         1.807633        -0.529400         2.170354
 H         1.521298        -1.951715         1.110457
 H         4.142444         0.054254         2.284803
 H         5.296144        -1.253874         1.556906
 H         5.794422         0.909386         0.238896
 H         4.213221         1.900222        -1.231756
 H         1.908244         1.691526        -1.415115
