19
Iteration:   580
 C         0.060043         0.348955         0.222558
 C         1.542093        -0.021096        -0.023913
 C         2.097863        -0.750648         1.227697
 O         3.315346        -1.429133         1.401376
 C         4.541354        -0.694836         1.234609
 C         4.677518         0.503624         0.312331
 C         3.793092         1.168202        -0.517487
 C         2.403538         0.886451        -0.814523
 O         1.881926        -0.249262        -1.512340
 H        -0.024689         0.808524         1.210346
 H        -0.250779         1.101263        -0.541584
 H        -0.505740        -0.553052         0.162774
 H         1.884935        -0.016846         2.038966
 H         1.370599        -1.568549         1.589962
 H         4.794036        -0.120724         2.178885
 H         5.302459        -1.370385         1.133752
 H         5.714336         0.917347         0.346235
 H         4.279521         2.001267        -1.027970
 H         1.835048         1.833479        -0.970288
