19
Iteration:  4052
 C         0.092082         0.467232         0.308978
 C         1.569111         0.059301         0.170269
 C         2.021969        -1.116567         0.942219
 O         3.362257        -1.450660         0.739570
 C         4.284940        -0.537506         1.333458
 C         4.776584         0.529106         0.379577
 C         3.947613         1.183046        -0.406321
 C         2.466699         0.882686        -0.595252
 O         1.880171        -0.192653        -1.215595
 H        -0.098194         1.403581        -0.115569
 H        -0.339061        -0.372791        -0.257697
 H        -0.303033         0.507596         1.281188
 H         1.745556        -0.928062         1.962352
 H         1.320489        -2.013065         0.633819
 H         3.774937        -0.028107         2.209527
 H         5.044760        -1.139927         1.793278
 H         5.746166         0.926214         0.575197
 H         4.334962         1.934394        -1.077824
 H         1.938071         1.868128        -0.947066
