19
Iteration:  4889
 C         0.154641         0.553146         0.454878
 C         1.551208        -0.009127         0.009273
 C         2.019827        -1.133080         0.949482
 O         3.387003        -1.505081         0.653051
 C         4.370983        -0.705334         1.331608
 C         4.620587         0.604286         0.704304
 C         3.922769         1.254099        -0.265381
 C         2.493424         0.964988        -0.751405
 O         1.819134        -0.204869        -1.458028
 H         0.090315         1.509559         1.044304
 H        -0.332068         0.497872        -0.618966
 H        -0.297451        -0.269848         1.063025
 H         1.972817        -0.819164         2.072154
 H         1.499824        -2.062446         0.875882
 H         3.878700        -0.477906         2.342954
 H         5.431936        -1.203701         1.452459
 H         5.559974         1.136904         1.067627
 H         4.216580         2.268183        -0.613796
 H         2.024646         1.901268        -0.979680
