19
Iteration:   539charge 0 multiplicity 1
 C         0.089661         0.415165         0.168162
 C         1.590268         0.086108         0.139885
 C         1.979881        -0.839715         1.222855
 O         3.275566        -1.409692         0.990229
 C         4.407800        -0.575928         1.255038
 C         4.691690         0.526980         0.252752
 C         3.809923         1.210591        -0.564451
 C         2.406455         0.919441        -0.720466
 O         2.063188        -0.450197        -1.103998
 H        -0.224008         1.356139         0.784102
 H        -0.327571         0.719435        -0.801830
 H        -0.560833        -0.450528         0.530536
 H         1.970848        -0.470668         2.261824
 H         1.258483        -1.663356         1.083124
 H         4.285325        -0.239775         2.320471
 H         5.420621        -1.200345         1.332122
 H         5.735404         0.731869         0.115656
 H         4.384919         1.864940        -1.399252
 H         1.876883         1.667015        -1.401763
