19
Iteration:  3723
 C         0.215975         0.490407         0.396893
 C         1.601433         0.006156         0.012459
 C         2.058943        -1.049356         1.019591
 O         3.327045        -1.601960         0.936194
 C         4.378438        -0.663722         1.222582
 C         4.625475         0.665174         0.512191
 C         3.869555         1.321618        -0.372505
 C         2.491821         0.969079        -0.744814
 O         1.812798        -0.278755        -1.403602
 H        -0.050049         1.454066         0.274312
 H        -0.562381        -0.246331        -0.040808
 H        -0.034685         0.474238         1.436508
 H         1.828224        -0.698079         2.077840
 H         1.329577        -1.905261         0.897621
 H         4.368538        -0.526759         2.373201
 H         5.312698        -1.242189         1.155183
 H         5.520118         1.215419         0.672881
 H         4.140781         2.238687        -0.821016
 H         1.955422         1.920664        -1.074217
