19
Iteration:  3666charge 0 multiplicity 1
 C         0.043649         0.485957         0.341711
 C         1.496498        -0.006180         0.049215
 C         2.088003        -0.999898         1.003719
 O         3.405591        -1.378292         0.615064
 C         4.369149        -0.644692         1.342195
 C         4.773418         0.540235         0.497946
 C         3.926924         1.188100        -0.305718
 C         2.471365         0.919259        -0.665751
 O         1.789652        -0.275787        -1.227833
 H        -0.144906         1.100724        -0.447901
 H        -0.816075        -0.285144         0.132203
 H        -0.162876         0.816014         1.357954
 H         2.028420        -0.690401         2.095277
 H         1.615304        -2.040634         0.860946
 H         3.875709        -0.279280         2.336544
 H         5.279046        -1.191276         1.582504
 H         5.725603         0.932384         0.664288
 H         4.469997         2.019990        -0.822224
 H         1.924141         1.761969        -1.085530
