19
Iteration:  4090
 C         0.210006         0.641143         0.467156
 C         1.523205        -0.015577         0.065968
 C         1.995846        -1.156589         0.882622
 O         3.405232        -1.512143         0.746964
 C         4.230144        -0.576923         1.384445
 C         4.640383         0.687765         0.523557
 C         3.862750         1.228679        -0.399893
 C         2.468553         0.878650        -0.660252
 O         1.953399        -0.326210        -1.369085
 H         0.051752         1.635648        -0.084470
 H        -0.684682         0.082695         0.226016
 H         0.175655         0.764268         1.609673
 H         1.986500        -0.797183         1.972630
 H         1.502079        -2.052675         0.732542
 H         3.828575        -0.215133         2.481103
 H         5.217799        -1.094089         1.532254
 H         5.764117         0.894466         0.650256
 H         4.239288         1.739970        -1.309015
 H         1.957206         1.676170        -0.991901
