19
Iteration:  2054
 C         0.097556         0.234070         0.227627
 C         1.535803         0.015051        -0.013949
 C         2.055996        -0.774211         1.271799
 O         3.281258        -1.422105         1.210858
 C         4.463062        -0.657423         1.275382
 C         4.718534         0.491478         0.289998
 C         3.858738         1.151109        -0.562564
 C         2.404422         0.968668        -0.735591
 O         1.900163        -0.227592        -1.395049
 H        -0.109095         0.857549         1.186159
 H        -0.242052         0.827553        -0.629869
 H        -0.333742        -0.685463         0.082794
 H         2.137990         0.097766         1.973559
 H         1.276731        -1.482677         1.722657
 H         4.438247        -0.076897         2.330270
 H         5.325166        -1.343482         1.331576
 H         5.773877         0.694861         0.192472
 H         4.286238         1.844518        -1.245521
 H         1.876217         1.985006        -0.988475
