19
Iteration:  4962
 C         0.032182         0.437465         0.205240
 C         1.539848        -0.014851         0.101284
 C         2.006816        -1.090364         0.923512
 O         3.335683        -1.598786         0.782026
 C         4.369456        -0.665151         1.233590
 C         4.773576         0.614428         0.454496
 C         3.913699         1.262749        -0.287885
 C         2.454685         1.068480        -0.415539
 O         1.926321        -0.182498        -1.286472
 H        -0.238541         0.753612         1.217526
 H        -0.081317         1.242824        -0.545782
 H        -0.534021        -0.337088        -0.192001
 H         2.135257        -0.611506         1.955040
 H         1.204499        -1.973871         0.980932
 H         3.917845        -0.222489         2.140028
 H         5.290792        -1.144048         1.398587
 H         5.855608         0.865436         0.411774
 H         4.157456         2.069597        -1.010224
 H         1.965388         1.972264        -0.821930
