19
Iteration:  1518
 C        -0.092249         0.247425         0.118445
 C         1.454930         0.094067        -0.011359
 C         2.231173        -0.526263         1.290876
 O         3.315496        -1.317104         1.132967
 C         4.625127        -0.742502         1.280428
 C         4.746096         0.483014         0.424497
 C         3.854856         1.100530        -0.380032
 C         2.368506         0.852267        -0.879048
 O         1.797176        -0.373441        -1.356046
 H        -0.405848         0.236401         1.204339
 H        -0.397310         1.185184        -0.453621
 H        -0.391260        -0.706524        -0.241753
 H         2.493961         0.413301         1.879298
 H         1.432211        -1.054314         1.810831
 H         4.712412        -0.606648         2.343167
 H         5.298596        -1.648758         1.016222
 H         5.756428         0.930314         0.430570
 H         4.264140         1.900814        -0.936914
 H         2.110148         1.766495        -1.564836
