19
Iteration:  1475charge 0 multiplicity 1
 C         0.031088         0.306005         0.114316
 C         1.524956         0.084175         0.112916
 C         2.009085        -0.696497         1.388972
 O         3.210947        -1.448398         1.033911
 C         4.417049        -0.611636         1.217396
 C         4.685841         0.545435         0.243808
 C         3.910007         1.231282        -0.554204
 C         2.434657         0.890316        -0.793074
 O         2.108369        -0.430245        -1.191074
 H        -0.264406         0.927602         0.989617
 H        -0.525884         0.896150        -0.689858
 H        -0.555052        -0.545870         0.334393
 H         2.231775        -0.002493         2.250195
 H         1.247704        -1.441242         1.784772
 H         4.519337        -0.227873         2.269204
 H         5.171462        -1.302665         1.001609
 H         5.784294         0.580893         0.194940
 H         4.399996         1.966775        -1.153958
 H         1.678460         1.684412        -1.185339
