19
Iteration:  3048charge 0 multiplicity 1
 C         0.122550         0.368419         0.380871
 C         1.509855         0.023526         0.037261
 C         2.026167        -1.074528         1.002660
 O         3.356003        -1.531984         0.821447
 C         4.333890        -0.634017         1.336248
 C         4.738010         0.601487         0.515744
 C         3.945929         1.167505        -0.486389
 C         2.480760         1.025333        -0.602173
 O         1.839398        -0.102517        -1.338303
 H        -0.369164         0.690699        -0.527207
 H        -0.414045        -0.498858         0.695238
 H         0.053844         1.085834         1.137129
 H         1.842296        -0.636931         2.038046
 H         1.406124        -1.953156         0.786408
 H         4.028738        -0.282152         2.309823
 H         5.239926        -1.303470         1.427112
 H         5.851520         0.895668         0.466596
 H         4.287442         1.991741        -1.060104
 H         2.006313         1.904459        -1.178951
