19
Iteration:  3356charge 0 multiplicity 1
 C         0.145562         0.361194         0.300910
 C         1.526966         0.013200         0.036143
 C         2.051357        -0.953146         1.102585
 O         3.264259        -1.565732         0.900333
 C         4.482654        -0.731754         1.150292
 C         4.617047         0.547425         0.454419
 C         3.807315         1.333872        -0.321735
 C         2.357095         1.073500        -0.652371
 O         2.036212        -0.184652        -1.296527
 H        -0.450950         0.437579        -0.687040
 H        -0.330168        -0.402645         0.860319
 H         0.127128         1.320479         0.816668
 H         2.045155        -0.454549         2.129672
 H         1.260382        -1.785993         0.996212
 H         4.564908        -0.646873         2.242470
 H         5.336171        -1.444667         0.780451
 H         5.642420         0.728775         0.389765
 H         4.319550         2.201675        -0.830807
 H         1.766377         1.794683        -1.160736
