19
Iteration:  3775
 C         0.008447         0.178386         0.159744
 C         1.488099         0.052116         0.148238
 C         2.031550        -0.883881         1.130147
 O         3.313122        -1.443312         0.848672
 C         4.451621        -0.670307         1.239053
 C         4.846959         0.458894         0.317628
 C         3.951868         1.161861        -0.406489
 C         2.341027         1.077355        -0.454094
 O         1.928949        -0.076065        -1.267342
 H        -0.269952         0.894671        -0.705353
 H        -0.568845        -0.840903        -0.087195
 H        -0.404561         0.678230         1.060988
 H         2.063853        -0.344977         2.061963
 H         1.305637        -1.743799         1.296624
 H         4.094890        -0.255506         2.203510
 H         5.238363        -1.409109         1.265370
 H         5.842776         0.565750         0.117069
 H         4.352462         1.739610        -1.266193
 H         1.985489         2.013407        -0.815494
