19
Iteration:  1413
 C         0.000968         0.503831         0.155343
 C         1.474344        -0.042639         0.029863
 C         2.057593        -0.858934         1.199050
 O         3.369773        -1.386584         1.122691
 C         4.468799        -0.525478         1.308562
 C         4.742993         0.572980         0.344484
 C         3.921904         1.080176        -0.546243
 C         2.380643         0.867846        -0.756720
 O         1.881254        -0.401728        -1.285107
 H         0.222937         1.475700         0.642119
 H        -0.521908         0.516678        -0.811978
 H        -0.600260        -0.183489         0.784679
 H         1.988421        -0.190784         2.072238
 H         1.340708        -1.712568         1.430761
 H         4.514534        -0.149523         2.349395
 H         5.387185        -1.329168         1.323086
 H         5.823049         0.877126         0.407637
 H         4.344718         1.825577        -1.300539
 H         1.860434         1.775175        -1.068601
