19
Iteration:   961charge 0 multiplicity 1
 C         0.136758         0.349989         0.248410
 C         1.570411         0.024821        -0.046670
 C         2.121124        -0.652162         1.255996
 O         3.257059        -1.436048         0.997748
 C         4.386356        -0.640460         1.331644
 C         4.676449         0.565820         0.424826
 C         3.842565         1.135072        -0.518656
 C         2.395434         0.889860        -0.872601
 O         1.929316        -0.435700        -1.269541
 H        -0.017309         1.272975         0.998746
 H        -0.370485         0.576079        -0.681840
 H        -0.489105        -0.495686         0.759227
 H         2.183611         0.154865         1.978983
 H         1.444337        -1.293618         1.766709
 H         4.553988        -0.305567         2.418414
 H         5.347837        -1.334626         1.218457
 H         5.705467         1.062190         0.624884
 H         4.207111         2.020033        -1.106783
 H         1.845219         1.676895        -1.467727
