19
Iteration:  3110
 C         0.274712         0.598244         0.511134
 C         1.551715        -0.025571         0.033443
 C         2.060422        -1.166891         0.909124
 O         3.402906        -1.498759         0.778951
 C         4.234712        -0.582577         1.366528
 C         4.608402         0.678480         0.566095
 C         3.892965         1.212098        -0.487050
 C         2.459597         0.850969        -0.651489
 O         1.827564        -0.239594        -1.420999
 H         0.099157         1.500104        -0.018796
 H        -0.623082        -0.066106         0.523207
 H         0.452441         0.931526         1.604533
 H         1.771054        -1.085089         1.905884
 H         1.532777        -2.103494         0.575192
 H         3.812910        -0.379397         2.473077
 H         5.213121        -1.086114         1.595936
 H         5.630259         1.051137         0.769135
 H         4.333187         1.996169        -1.078268
 H         2.043885         1.746557        -1.026005
