19
Iteration:  2608
 C         0.008316         0.384564         0.165634
 C         1.533757         0.007601         0.147148
 C         2.028592        -1.065098         1.143602
 O         3.353061        -1.405294         0.876924
 C         4.329014        -0.435052         1.292530
 C         4.791209         0.396711         0.245147
 C         3.910140         1.129341        -0.469211
 C         2.425619         0.989774        -0.531823
 O         1.953341        -0.179231        -1.217119
 H        -0.341449         0.102904         1.224587
 H        -0.165504         1.467556        -0.116379
 H        -0.579421        -0.319436        -0.622874
 H         1.937681        -0.832190         2.193574
 H         1.490572        -1.967790         0.938876
 H         4.097927         0.122813         2.217923
 H         4.995629        -1.153738         1.606061
 H         5.845281         0.818180         0.180991
 H         4.328679         1.763327        -1.242060
 H         2.116865         1.931641        -0.812502
