19
Iteration:  1244
 C         0.000786         0.273452         0.330087
 C         1.449131         0.067515        -0.055091
 C         2.058961        -0.801825         1.159763
 O         3.375488        -1.371355         1.033667
 C         4.378027        -0.431833         1.456077
 C         4.810581         0.469741         0.384788
 C         3.976304         0.886130        -0.643651
 C         2.464928         0.883286        -0.731237
 O         1.841323        -0.208726        -1.375949
 H        -0.045160         0.823819         1.249793
 H        -0.569042         0.697511        -0.444220
 H        -0.358982        -0.757957         0.473917
 H         1.935222        -0.015453         1.934889
 H         1.268233        -1.593389         1.530082
 H         4.116431         0.097268         2.354440
 H         5.120170        -1.124179         1.716050
 H         5.788445         0.931936         0.408746
 H         4.508238         1.565239        -1.497418
 H         2.049382         1.969282        -1.025204
