19
Iteration:  1923
 C         0.136613         0.442580         0.176513
 C         1.534810         0.002052        -0.018229
 C         2.150589        -0.705846         1.239357
 O         3.326189        -1.379017         1.096886
 C         4.558593        -0.704102         1.236464
 C         4.660561         0.647803         0.494874
 C         3.799095         1.116531        -0.443615
 C         2.399657         0.787070        -0.896194
 O         1.793560        -0.454396        -1.334977
 H         0.091514         1.288868         1.034796
 H        -0.350518         0.871268        -0.685120
 H        -0.414214        -0.288885         0.646498
 H         2.212753         0.190185         1.908358
 H         1.356560        -1.346414         1.547647
 H         4.487347        -0.489006         2.354453
 H         5.330396        -1.513561         1.042834
 H         5.498004         1.222664         0.751301
 H         3.943778         2.158876        -0.819382
 H         1.992090         1.665977        -1.404746
