19
Iteration:  1016charge 0 multiplicity 1
 C         0.035489         0.295164         0.028562
 C         1.493574         0.092028         0.054601
 C         2.063592        -0.578390         1.358656
 O         3.277573        -1.355629         1.101886
 C         4.512422        -0.743084         1.157630
 C         4.723182         0.552824         0.359703
 C         3.837752         1.180051        -0.491589
 C         2.419110         0.850695        -0.755237
 O         1.923754        -0.463308        -1.200135
 H        -0.329848         0.868738         1.008218
 H        -0.180312         0.969915        -0.802134
 H        -0.511976        -0.721445        -0.136142
 H         2.140331         0.282109         2.065984
 H         1.424764        -1.390894         1.653322
 H         4.751529        -0.354002         2.143814
 H         5.321709        -1.547815         0.839883
 H         5.826163         0.842495         0.539697
 H         4.290221         2.120726        -0.926047
 H         1.964814         1.707258        -1.314040
