19
Iteration:   338
 C         0.105340         0.433248         0.363282
 C         1.531749         0.002414        -0.031538
 C         2.088368        -0.860400         1.178090
 O         3.357286        -1.486951         1.146358
 C         4.355141        -0.490345         1.357096
 C         4.680044         0.581725         0.331114
 C         3.834400         1.090640        -0.712457
 C         2.433503         0.977815        -0.742108
 O         1.930669        -0.390289        -1.322474
 H         0.259168         0.873311         1.354476
 H        -0.480944         1.143793        -0.328984
 H        -0.629465        -0.389921         0.469525
 H         2.162654        -0.160648         2.129373
 H         1.327276        -1.702431         1.366659
 H         4.083836         0.115427         2.259343
 H         5.334140        -1.094057         1.556135
 H         5.734971         0.601123        -0.009368
 H         4.254858         1.607992        -1.443310
 H         1.949940         1.685447        -1.416496
