19
Iteration:  4420charge 0 multiplicity 1
 C        -0.003465         0.172536         0.213761
 C         1.502374         0.083625        -0.005575
 C         2.043136        -0.941203         1.061336
 O         3.294819        -1.523758         0.873742
 C         4.444317        -0.741605         1.285868
 C         4.801380         0.403764         0.365204
 C         3.922402         1.194381        -0.249315
 C         2.439094         1.084219        -0.462958
 O         1.923363         0.122426        -1.390291
 H        -0.267937        -0.677923         0.766971
 H        -0.428043         1.129004         0.573971
 H        -0.429314        -0.075206        -0.713159
 H         1.966871        -0.461664         2.056146
 H         1.339714        -1.814167         0.822689
 H         4.118942        -0.393715         2.219878
 H         5.193607        -1.464599         1.410506
 H         5.889055         0.438021         0.202889
 H         4.334743         2.038991        -0.876036
 H         1.948158         2.119358        -0.661806
