19
Iteration:   214charge 0 multiplicity 1
 C        -0.067272         0.283935         0.260494
 C         1.458775         0.108841         0.015684
 C         2.045347        -0.638432         1.252780
 O         3.242351        -1.388411         1.087028
 C         4.496036        -0.680346         1.128888
 C         4.773223         0.549145         0.363041
 C         3.891254         1.130903        -0.529125
 C         2.422693         0.879551        -0.783769
 O         2.038744        -0.386865        -1.212388
 H        -0.206564         0.910890         1.197852
 H        -0.631044         0.781442        -0.464324
 H        -0.587627        -0.705300         0.439627
 H         2.200373         0.186170         2.025007
 H         1.352160        -1.501497         1.524640
 H         4.561618        -0.386268         2.248769
 H         5.255678        -1.433081         0.892095
 H         5.815791         0.961404         0.495892
 H         4.439059         1.777897        -1.294653
 H         2.007075         1.679371        -1.510389
