19
Iteration:  4806
 C         0.073908         0.142935         0.152986
 C         1.585663         0.063641         0.025683
 C         2.064386        -1.020095         1.051759
 O         3.274058        -1.574587         0.952972
 C         4.333103        -0.743376         1.304706
 C         4.732607         0.418176         0.297806
 C         3.920272         1.291131        -0.353096
 C         2.414016         1.220921        -0.390493
 O         1.960687         0.072158        -1.373735
 H        -0.133841         0.450352         1.214517
 H        -0.360090         0.970259        -0.353448
 H        -0.434038        -0.794287        -0.264386
 H         1.896951        -0.512997         1.996675
 H         1.274668        -1.845958         0.853980
 H         4.193938        -0.432972         2.385671
 H         5.249105        -1.303132         1.346395
 H         5.845712         0.324615         0.124438
 H         4.378388         1.978247        -1.069511
 H         1.793383         2.207214        -0.535068
