19
Iteration:  4096
 C         0.243510         0.597522         0.443590
 C         1.519813         0.051112         0.029696
 C         2.051636        -1.128944         0.917089
 O         3.423933        -1.520831         0.780701
 C         4.246993        -0.569684         1.408164
 C         4.628979         0.670888         0.523149
 C         3.813417         1.150670        -0.404639
 C         2.466677         0.865527        -0.658117
 O         1.911189        -0.289142        -1.412544
 H         0.167429         1.571068         0.031099
 H        -0.652399        -0.067900         0.346682
 H         0.316152         0.850032         1.474881
 H         1.911895        -0.814018         1.931581
 H         1.314070        -2.061653         0.731365
 H         3.913260        -0.396604         2.362480
 H         5.169800        -1.098231         1.610284
 H         5.603308         0.989305         0.666168
 H         4.271426         1.906409        -1.073738
 H         1.918214         1.901732        -1.051712
