19
Iteration:  2265
 C         0.071967         0.350164         0.257957
 C         1.545570         0.067729         0.110774
 C         2.057443        -0.941625         1.110624
 O         3.404983        -1.353963         1.052297
 C         4.303804        -0.363048         1.427373
 C         4.825635         0.510196         0.277831
 C         3.988018         0.954701        -0.646722
 C         2.470137         0.885700        -0.688684
 O         1.755153        -0.275726        -1.283867
 H        -0.269031         0.477701         1.372227
 H        -0.388029         1.250819        -0.284235
 H        -0.454614        -0.466763        -0.074833
 H         1.831384        -0.549704         2.122681
 H         1.433714        -1.831596         0.958820
 H         3.902462         0.177991         2.227813
 H         5.101581        -0.990715         1.860534
 H         5.864106         0.717844         0.146416
 H         4.295312         1.500072        -1.543387
 H         1.919791         1.697514        -1.227676
