19
Iteration:  4358charge 0 multiplicity 1
 C         0.062391         0.397189         0.133376
 C         1.534008        -0.013866         0.030457
 C         2.066368        -1.032105         1.109436
 O         3.292047        -1.541620         0.830962
 C         4.437293        -0.813476         1.166251
 C         4.679977         0.503838         0.412033
 C         3.849809         1.300419        -0.238922
 C         2.369965         1.119939        -0.507535
 O         2.019880        -0.074753        -1.282259
 H        -0.496996        -0.254228         0.908162
 H        -0.216042         1.465892         0.423926
 H        -0.359926         0.130234        -0.860721
 H         1.917618        -0.625753         2.163102
 H         1.439435        -1.894840         1.147136
 H         4.538971        -0.604467         2.286971
 H         5.390501        -1.476383         1.042001
 H         5.662968         0.888964         0.431298
 H         4.238837         2.231038        -0.670889
 H         1.842952         1.933742        -0.874651
