19
Iteration:  1095charge 0 multiplicity 1
 C         0.000919         0.250871         0.065874
 C         1.504189         0.004737         0.019610
 C         2.058881        -0.591346         1.325611
 O         3.245993        -1.341239         1.171095
 C         4.563305        -0.703991         1.220435
 C         4.729326         0.479705         0.293442
 C         3.847925         1.159238        -0.495914
 C         2.438972         0.937212        -0.732773
 O         1.935013        -0.378600        -1.253677
 H        -0.355460         0.833008         1.032863
 H        -0.184764         0.902401        -0.913396
 H        -0.523245        -0.739117        -0.078814
 H         2.019135         0.279937         2.077680
 H         1.290537        -1.298376         1.710027
 H         4.818952        -0.456329         2.242017
 H         5.210224        -1.618427         0.817991
 H         5.723775         0.956400         0.313006
 H         4.322965         1.888666        -0.983935
 H         2.001954         1.800777        -1.202438
