19
Iteration:   145
 C        -0.046751         0.330252         0.086882
 C         1.475381         0.034001         0.075955
 C         2.054775        -0.556653         1.387588
 O         3.247747        -1.286657         1.077224
 C         4.558242        -0.810450         1.048164
 C         4.672547         0.478798         0.269327
 C         3.833903         1.168820        -0.450981
 C         2.354078         0.910675        -0.778004
 O         2.132617        -0.477392        -1.132748
 H        -0.393191         0.492565         1.049440
 H        -0.312210         1.310034        -0.495466
 H        -0.697171        -0.375955        -0.324249
 H         2.284575         0.263936         2.142716
 H         1.412022        -1.365611         1.733615
 H         4.906970        -0.511997         2.115700
 H         5.105266        -1.612526         0.761359
 H         5.640177         0.995792         0.500059
 H         4.172355         2.130253        -0.894569
 H         1.916665         1.697582        -1.319650
