19
Iteration:  4606charge 0 multiplicity 1
 C        -0.002414         0.279822         0.087456
 C         1.491731         0.047070         0.192848
 C         1.950585        -1.036823         1.099115
 O         3.295964        -1.580191         0.864990
 C         4.287373        -0.525589         1.265463
 C         4.836821         0.395569         0.120590
 C         3.975789         1.322705        -0.397015
 C         2.438115         1.064100        -0.379076
 O         2.087327        -0.083010        -1.146283
 H        -0.143541        -0.085036        -0.885749
 H        -0.576990        -0.267152         0.877496
 H        -0.550192         1.155234         0.024389
 H         2.010250        -0.655837         2.134074
 H         1.219591        -1.958424         1.129752
 H         3.793091         0.062503         1.993591
 H         5.111836        -1.105560         1.474845
 H         5.861754         0.330446        -0.168723
 H         4.374353         1.972604        -1.144591
 H         1.985290         2.076877        -0.758413
