19
Iteration:  3139charge 0 multiplicity 1
 C         0.079674         0.381919         0.425429
 C         1.501583         0.094299         0.127404
 C         2.081734        -1.089649         0.919659
 O         3.427180        -1.410743         0.706327
 C         4.248009        -0.564152         1.426218
 C         4.768839         0.576268         0.508879
 C         4.005705         1.041273        -0.462872
 C         2.494109         0.943909        -0.643898
 O         1.767265        -0.137150        -1.337836
 H        -0.414077         1.150961        -0.304928
 H        -0.473270        -0.628166         0.427159
 H         0.052851         0.794732         1.481975
 H         1.913137        -0.992980         2.099090
 H         1.523148        -1.940787         0.562151
 H         3.672161        -0.184180         2.229716
 H         5.071160        -1.086500         1.887351
 H         5.761767         0.913218         0.615701
 H         4.376589         1.728487        -1.282329
 H         2.196695         1.882708        -1.191251
