19
Iteration:  1179charge 0 multiplicity 1
 C         0.123626         0.613078         0.239484
 C         1.503376        -0.013273         0.134695
 C         1.934500        -0.954364         1.237154
 O         3.228404        -1.460105         1.031222
 C         4.361976        -0.517698         1.239622
 C         4.681792         0.637414         0.322914
 C         3.879920         1.296523        -0.612213
 C         2.445284         0.768740        -0.829590
 O         2.127953        -0.517724        -1.171512
 H         0.055380         1.277099         1.084353
 H        -0.265140         1.082807        -0.587658
 H        -0.587574        -0.196159         0.379142
 H         1.980737        -0.457582         2.216331
 H         1.320536        -1.941817         1.162203
 H         4.368128        -0.236502         2.352013
 H         5.285000        -1.077355         1.173081
 H         5.740752         0.897070         0.414528
 H         4.273209         2.209584        -1.275069
 H         1.908265         1.583716        -1.414266
