19
Iteration:  3315
 C         0.143903         0.563745         0.353812
 C         1.550641         0.050395         0.052903
 C         2.074816        -1.012410         1.044091
 O         3.384188        -1.569071         0.761432
 C         4.415415        -0.729759         1.179308
 C         4.584693         0.664381         0.589563
 C         3.779884         1.318987        -0.285890
 C         2.419080         0.884062        -0.800646
 O         1.927014        -0.353136        -1.300138
 H        -0.131085         1.299173        -0.279912
 H        -0.687124        -0.113200         0.577219
 H         0.349235         1.026633         1.285509
 H         2.093969        -0.534749         2.031130
 H         1.395665        -1.899915         1.096654
 H         4.429898        -0.511166         2.310836
 H         5.361536        -1.282552         1.000446
 H         5.543594         1.210117         0.887025
 H         4.059739         2.263793        -0.658180
 H         1.928341         1.884412        -1.201108
