19
Iteration:    62
 C         0.124820         0.424861         0.133652
 C         1.554621        -0.075931         0.003629
 C         2.087407        -0.709308         1.315032
 O         3.272258        -1.450138         1.157785
 C         4.462638        -0.684183         1.135212
 C         4.655939         0.571635         0.263576
 C         3.786015         1.286325        -0.408405
 C         2.413926         0.934417        -0.660017
 O         1.948330        -0.463591        -1.309982
 H         0.169067         1.475361         0.673615
 H        -0.239283         0.607863        -0.869886
 H        -0.604138        -0.288821         0.703176
 H         2.025741         0.022867         2.097359
 H         1.303536        -1.428906         1.640250
 H         4.791953        -0.410222         2.170937
 H         5.239293        -1.496940         0.742695
 H         5.725167         0.850555         0.313512
 H         4.223663         2.088635        -1.159098
 H         1.753714         1.687296        -1.221989
