19
Iteration:  3016
 C        -0.032402         0.230240         0.250894
 C         1.455440         0.068546         0.065414
 C         2.037277        -0.941144         1.066183
 O         3.337734        -1.364263         0.751950
 C         4.399474        -0.650029         1.308989
 C         4.822320         0.413462         0.326024
 C         3.931089         1.094610        -0.360493
 C         2.418859         1.039270        -0.450414
 O         1.945417        -0.055821        -1.267755
 H        -0.328526         0.474253        -0.819033
 H        -0.371107        -0.808790         0.514253
 H        -0.500959         0.919334         0.958153
 H         2.042727        -0.499236         2.043731
 H         1.389891        -1.774636         1.177613
 H         4.163197        -0.095433         2.338809
 H         5.276772        -1.296115         1.585825
 H         5.932590         0.436264         0.044436
 H         4.243970         1.812849        -1.048931
 H         2.182324         1.976351        -0.984064
