19
Iteration:  3088
 C         0.259094         0.722531         0.497990
 C         1.554335        -0.068468        -0.024359
 C         2.036020        -1.242800         0.857761
 O         3.439071        -1.623444         0.862867
 C         4.380878        -0.546633         1.374288
 C         4.597099         0.622782         0.535271
 C         3.760650         1.205019        -0.410954
 C         2.357479         0.955211        -0.755175
 O         1.901162        -0.230109        -1.381900
 H         0.061088         1.584105        -0.098549
 H        -0.639118         0.062562         0.632607
 H         0.471091         1.131337         1.560395
 H         1.730709        -1.030546         1.869850
 H         1.423228        -2.179701         0.648597
 H         3.934747        -0.374286         2.480381
 H         5.398194        -0.952342         1.593039
 H         5.544481         1.139010         0.617061
 H         4.303015         2.086916        -0.791644
 H         1.928117         1.879103        -1.079455
