19
Iteration:  1317
 C         0.148499         0.635398         0.106815
 C         1.576505        -0.062085         0.094069
 C         1.981416        -1.161890         1.229130
 O         3.387143        -1.436178         1.158896
 C         4.359299        -0.369570         1.352333
 C         4.708427         0.532048         0.165741
 C         3.830090         1.134845        -0.658293
 C         2.420997         0.892143        -0.643283
 O         1.939757        -0.371545        -1.206912
 H        -0.006006         0.922377         1.135567
 H         0.045868         1.500307        -0.513675
 H        -0.601826        -0.074230        -0.431831
 H         1.567466        -0.604888         2.144441
 H         1.417978        -2.047924         1.174767
 H         3.978068         0.250734         2.263416
 H         5.223000        -0.949679         1.801756
 H         5.810419         0.737071        -0.026479
 H         4.185850         1.724984        -1.570298
 H         1.796940         1.717073        -0.918224
