19
Iteration:  4249
 C         0.019544         0.314810         0.254601
 C         1.520882         0.059152        -0.044877
 C         2.060142        -0.914652         0.974382
 O         3.366340        -1.551221         0.941103
 C         4.494217        -0.745469         1.258144
 C         4.705665         0.497930         0.469822
 C         3.862141         1.184699        -0.340801
 C         2.385515         1.068760        -0.548647
 O         1.925733        -0.099208        -1.385039
 H        -0.521873        -0.637276         0.499514
 H        -0.063676         0.881632         1.248532
 H        -0.416682         0.994781        -0.420807
 H         1.884914        -0.323681         1.948745
 H         1.326951        -1.780777         1.028940
 H         4.232933        -0.321022         2.278880
 H         5.259894        -1.542521         1.204857
 H         5.640121         0.896532         0.509709
 H         4.422516         2.128414        -0.644540
 H         1.932899         1.999448        -0.791600
