19
Iteration:  4569
 C         0.073600         0.412060         0.213022
 C         1.515306         0.028999         0.096566
 C         2.007996        -1.138799         1.007156
 O         3.322216        -1.523086         0.913269
 C         4.368632        -0.566686         1.335472
 C         4.749527         0.440014         0.283209
 C         3.849217         1.203657        -0.411607
 C         2.412009         1.059938        -0.490031
 O         2.023625        -0.074088        -1.284405
 H        -0.435483        -0.352531        -0.477700
 H        -0.302044         0.101093         1.228898
 H        -0.072380         1.492977        -0.120164
 H         1.789157        -0.780141         2.077821
 H         1.404343        -1.989117         0.722495
 H         4.154686        -0.052390         2.257049
 H         5.242715        -1.259766         1.656429
 H         5.837237         0.676501         0.099220
 H         4.268756         2.010088        -1.100636
 H         1.813353         1.913895        -0.769776
