19
Iteration:  3978
 C         0.061980         0.179410         0.185670
 C         1.565631         0.008411        -0.020034
 C         2.003987        -1.002531         1.073680
 O         3.310089        -1.584670         1.161732
 C         4.477309        -0.708364         1.254163
 C         4.684547         0.392793         0.228818
 C         3.893563         1.308997        -0.395185
 C         2.426367         1.178823        -0.572368
 O         1.913273         0.076490        -1.316592
 H        -0.282734         0.717568        -0.774633
 H        -0.410020        -0.911336         0.279584
 H        -0.152570         0.820450         1.039780
 H         1.675085        -0.372467         1.995098
 H         1.271697        -1.816179         0.896507
 H         4.579611        -0.281142         2.209741
 H         5.260155        -1.402770         1.264564
 H         5.714000         0.485990         0.136651
 H         4.480410         2.034057        -0.992260
 H         1.875182         2.046648        -0.589327
