19
Iteration:    41charge 0 multiplicity 1
 C         0.097477         0.536261         0.113857
 C         1.495210        -0.000764         0.163534
 C         1.960281        -0.934444         1.262535
 O         3.285588        -1.438337         1.242263
 C         4.492372        -0.643288         1.036216
 C         4.701575         0.614909         0.213974
 C         3.821482         1.248009        -0.549822
 C         2.427041         0.837885        -0.789848
 O         2.061061        -0.421535        -1.176270
 H        -0.049082         1.499063         0.782413
 H        -0.222878         0.798303        -0.826109
 H        -0.658685        -0.248523         0.549319
 H         1.706906        -0.429461         2.252055
 H         1.246496        -1.798605         1.309934
 H         4.776124        -0.269059         2.069237
 H         5.224581        -1.435079         0.808237
 H         5.622178         1.089982         0.579364
 H         4.049947         2.389057        -0.701717
 H         1.763712         1.720600        -1.236665
