19
Iteration:   689
 C         0.093081         0.497242         0.085140
 C         1.498843        -0.031379         0.018921
 C         2.076559        -0.846495         1.287391
 O         3.392220        -1.475431         1.211098
 C         4.487019        -0.591849         1.253699
 C         4.624926         0.532178         0.315058
 C         3.868785         1.149577        -0.525147
 C         2.367511         0.923211        -0.787312
 O         1.898697        -0.368912        -1.273187
 H         0.030528         1.290137         0.819099
 H        -0.218052         0.830811        -0.854468
 H        -0.717515        -0.106157         0.431112
 H         2.081763        -0.297269         2.223068
 H         1.373058        -1.794233         1.327092
 H         4.525883        -0.144556         2.294650
 H         5.355317        -1.196514         1.089246
 H         5.649916         0.899233         0.491362
 H         4.137181         2.136031        -1.160414
 H         1.872230         1.763106        -1.392693
