19
Iteration:  2785
 C        -0.049110         0.308137         0.201523
 C         1.468169         0.017067         0.032393
 C         2.068646        -0.966604         1.073968
 O         3.369976        -1.513087         0.934255
 C         4.530559        -0.715199         1.303224
 C         4.750165         0.432803         0.370748
 C         3.883928         1.256827        -0.368127
 C         2.439291         1.156298        -0.569388
 O         1.885521        -0.107967        -1.346288
 H        -0.373484         0.689148        -0.792980
 H        -0.652377        -0.644298         0.554850
 H        -0.359247         1.119429         0.996539
 H         1.882740        -0.501447         2.122768
 H         1.397400        -1.820558         1.123769
 H         4.299219        -0.433054         2.429567
 H         5.320606        -1.427829         1.352839
 H         5.788062         0.617009         0.303558
 H         4.497128         1.921478        -1.040018
 H         1.959690         2.022248        -0.953850
