19
Iteration:  3195charge 0 multiplicity 1
 C         0.148902         0.289759         0.202762
 C         1.607039        -0.019708         0.112257
 C         1.980359        -1.178600         0.986545
 O         3.369233        -1.588724         1.149816
 C         4.351421        -0.557548         1.304079
 C         4.675092         0.396529         0.120348
 C         3.875055         1.262365        -0.479970
 C         2.415710         1.107850        -0.385952
 O         1.936363         0.069335        -1.378055
 H        -0.087402         0.881560        -0.709127
 H        -0.574450        -0.654559         0.124347
 H        -0.165735         0.823739         1.208008
 H         1.845460        -0.519744         1.997310
 H         1.314543        -2.016098         0.962875
 H         3.993175         0.038028         2.124315
 H         5.263159        -0.989050         1.569548
 H         5.710108         0.454555        -0.144900
 H         4.209758         2.028506        -1.164934
 H         1.909513         2.129762        -0.592025
