19
Iteration:  3308charge 0 multiplicity 1
 C         0.138832         0.586333         0.348265
 C         1.542541         0.014141         0.026221
 C         2.091932        -1.002598         1.057755
 O         3.390499        -1.528284         0.722433
 C         4.456116        -0.699344         1.216464
 C         4.622674         0.653862         0.599667
 C         3.751791         1.239122        -0.270542
 C         2.437056         0.935176        -0.783572
 O         1.877673        -0.350581        -1.271015
 H        -0.206308         1.414513        -0.383331
 H        -0.641767        -0.283686         0.322295
 H         0.285743         1.016526         1.470869
 H         2.055714        -0.488212         2.028823
 H         1.498362        -1.869154         0.924119
 H         4.272252        -0.778033         2.373896
 H         5.341224        -1.239761         0.978045
 H         5.528180         1.267862         0.843300
 H         4.137760         2.155982        -0.732601
 H         1.891579         1.609940        -1.347321
