19
Iteration:  2985
 C         0.002704         0.311508         0.145126
 C         1.480464         0.043740         0.108504
 C         2.014778        -0.988232         1.155443
 O         3.337437        -1.506509         0.948728
 C         4.472367        -0.690154         1.189126
 C         4.728828         0.419960         0.237694
 C         3.866131         1.267100        -0.393725
 C         2.413229         1.087385        -0.473657
 O         1.998703        -0.094589        -1.240228
 H        -0.253358         0.838102        -0.939080
 H        -0.523712        -0.720432        -0.118715
 H        -0.563825         0.931980         0.959055
 H         2.045790        -0.530700         2.164497
 H         1.374189        -1.867833         1.204870
 H         4.322975        -0.258426         2.262261
 H         5.312244        -1.385229         1.174709
 H         5.851206         0.609387         0.223728
 H         4.286490         2.111824        -0.909479
 H         1.975929         1.949740        -0.934477
