19
Iteration:  3682charge 0 multiplicity 1
 C         0.043149         0.617440         0.327332
 C         1.487215         0.066562         0.135563
 C         2.082397        -1.102387         0.989762
 O         3.448938        -1.422284         0.604077
 C         4.414396        -0.631603         1.343913
 C         4.668982         0.666096         0.587380
 C         3.848241         1.112841        -0.365809
 C         2.396096         0.846049        -0.633389
 O         1.891682        -0.329903        -1.294408
 H        -0.070594         1.650381        -0.266660
 H        -0.663387        -0.119225        -0.025365
 H         0.024431         0.789707         1.449746
 H         2.118254        -0.767621         2.057855
 H         1.439045        -1.955097         0.916536
 H         4.066602        -0.464483         2.317349
 H         5.350283        -1.346946         1.330947
 H         5.753829         1.056157         0.714648
 H         4.201392         1.971989        -0.909848
 H         1.990079         1.787916        -1.127004
