19
Iteration:    40charge 0 multiplicity 1
 C         0.090553         0.536992         0.121441
 C         1.498485         0.008241         0.163752
 C         1.960322        -0.934021         1.267487
 O         3.284005        -1.439741         1.240568
 C         4.493309        -0.640913         1.039605
 C         4.708979         0.611306         0.215766
 C         3.812030         1.247864        -0.554177
 C         2.425490         0.841186        -0.791694
 O         2.065543        -0.423343        -1.171925
 H        -0.044854         1.491527         0.785714
 H        -0.227539         0.818294        -0.879291
 H        -0.658992        -0.247414         0.534927
 H         1.685394        -0.478587         2.233185
 H         1.256355        -1.813306         1.260145
 H         4.775137        -0.264967         2.065191
 H         5.253496        -1.479769         0.796581
 H         5.619978         1.124882         0.590812
 H         4.054219         2.375685        -0.736683
 H         1.774790         1.696882        -1.246413
