19
Iteration:  1879charge 0 multiplicity 1
 C         0.054657         0.388255         0.235293
 C         1.493440         0.016391         0.067601
 C         2.027136        -0.756681         1.256306
 O         3.307231        -1.401209         0.939155
 C         4.429036        -0.549535         1.310706
 C         4.748013         0.535485         0.352533
 C         3.942356         1.086574        -0.541502
 C         2.397991         0.876688        -0.816444
 O         1.951533        -0.411874        -1.216321
 H        -0.192784         1.356146         0.882984
 H        -0.387285         0.346903        -0.759113
 H        -0.404108        -0.378146         0.775538
 H         2.020593        -0.044694         2.105023
 H         1.308919        -1.511584         1.461308
 H         4.162597         0.088703         2.239936
 H         5.266986        -1.297567         1.389034
 H         5.660593         1.031580         0.386821
 H         4.351811         1.978347        -1.108479
 H         1.908866         1.735444        -1.273679
