19
Iteration:  2317charge 0 multiplicity 1
 C         0.227087         0.522278         0.305989
 C         1.611153        -0.006696        -0.018649
 C         2.038728        -0.815589         1.162017
 O         3.376942        -1.477324         1.074859
 C         4.449408        -0.522249         1.291001
 C         4.549142         0.577167         0.443066
 C         3.783514         1.119657        -0.541090
 C         2.415260         0.868291        -0.831420
 O         1.889456        -0.458620        -1.320479
 H         0.069565         1.147569         1.235788
 H        -0.157935         1.358340        -0.360573
 H        -0.554064        -0.303422         0.436042
 H         1.889177        -0.360977         2.198833
 H         1.309884        -1.663317         1.118210
 H         4.344215        -0.158566         2.423393
 H         5.327853        -1.097686         1.346177
 H         5.501544         1.126174         0.244895
 H         4.366447         1.793431        -1.191718
 H         1.696836         1.677829        -1.214002
