19
Iteration:  4633
 C         0.029790         0.219254         0.148857
 C         1.510618         0.030646         0.073778
 C         2.064103        -0.966780         1.124823
 O         3.292572        -1.480574         0.924472
 C         4.384592        -0.712811         1.297409
 C         4.747613         0.418177         0.286711
 C         3.920968         1.185981        -0.413056
 C         2.414536         1.139716        -0.511491
 O         1.956638        -0.024469        -1.277180
 H        -0.423241        -0.021558        -0.867653
 H        -0.351619        -0.360941         0.977336
 H        -0.413979         1.271896         0.226382
 H         2.058720        -0.561805         2.159254
 H         1.465853        -1.820109         1.005146
 H         4.090352        -0.105786         2.274567
 H         5.292369        -1.405701         1.291234
 H         5.860921         0.684807         0.250705
 H         4.460859         2.059521        -0.862570
 H         2.050815         2.047343        -0.854456
