19
Iteration:  1333
 C         0.162857         0.549369         0.232684
 C         1.492319        -0.074215         0.137474
 C         1.968696        -1.025692         1.201018
 O         3.317150        -1.401526         1.083580
 C         4.357819        -0.359003         1.406358
 C         4.703555         0.572017         0.202713
 C         3.910588         1.095854        -0.648714
 C         2.444602         0.843065        -0.726344
 O         1.966684        -0.398480        -1.274256
 H        -0.066946         0.950875         1.247745
 H         0.184895         1.403232        -0.499803
 H        -0.657265        -0.075924         0.011601
 H         1.751944        -0.870137         2.220637
 H         1.383640        -2.012764         1.030265
 H         4.094619         0.256364         2.233562
 H         5.279136        -0.884166         1.558729
 H         5.761956         0.689804         0.206601
 H         4.278670         1.868758        -1.283509
 H         1.909528         1.721227        -1.292716
