19
Iteration:  1461charge 0 multiplicity 1
 C         0.073501         0.410766         0.145057
 C         1.573119         0.033032         0.100689
 C         1.991215        -0.778858         1.331738
 O         3.228358        -1.453164         1.069941
 C         4.332708        -0.631591         1.158834
 C         4.670551         0.510069         0.183248
 C         3.831607         1.288524        -0.606051
 C         2.434619         0.974529        -0.713740
 O         2.142384        -0.484316        -1.070517
 H        -0.066874         1.230902         0.837213
 H        -0.125369         0.637897        -0.923780
 H        -0.524064        -0.565009         0.274095
 H         2.020648        -0.165139         2.305880
 H         1.260084        -1.536431         1.447089
 H         4.325722        -0.151079         2.150231
 H         5.344617        -1.283442         1.223169
 H         5.670589         0.899251         0.239499
 H         4.173018         2.098504        -1.201980
 H         2.048514         1.620296        -1.488098
