19
Iteration:   667charge 0 multiplicity 1
 C         0.039255         0.491477         0.118440
 C         1.507574         0.085330         0.143815
 C         1.986716        -0.864705         1.234458
 O         3.239072        -1.387540         1.036651
 C         4.466821        -0.566332         1.231378
 C         4.726133         0.559349         0.204414
 C         3.850076         1.213279        -0.507468
 C         2.436470         0.832220        -0.726862
 O         2.099730        -0.515943        -1.110771
 H        -0.303605         1.044961         0.976731
 H        -0.166666         1.019072        -0.782866
 H        -0.625506        -0.343903         0.086777
 H         1.983383        -0.387159         2.243696
 H         1.151481        -1.663907         1.201164
 H         4.416737        -0.204856         2.258861
 H         5.232601        -1.288661         1.141088
 H         5.752427         0.951858         0.122129
 H         4.096920         2.110299        -1.195537
 H         1.836272         1.673952        -1.193876
