19
Iteration:   521charge 0 multiplicity 1
 C        -0.013485         0.464516         0.110009
 C         1.473731         0.112304         0.185672
 C         2.111540        -0.883340         1.289820
 O         3.326862        -1.383709         0.817289
 C         4.347170        -0.507187         1.251272
 C         4.764759         0.513192         0.325410
 C         3.908110         1.101593        -0.563391
 C         2.427647         0.824545        -0.735313
 O         1.974027        -0.440070        -1.068884
 H        -0.289891         1.376730         0.645525
 H        -0.310654         0.575247        -0.903479
 H        -0.643067        -0.348962         0.537008
 H         2.346870        -0.233737         2.183859
 H         1.447555        -1.731260         1.339505
 H         4.046201         0.035207         2.157357
 H         5.186732        -1.185229         1.611279
 H         5.790286         0.888741         0.416884
 H         4.309661         2.069893        -1.054868
 H         2.015571         1.689308        -1.227540
