19
Iteration:  4679
 C         0.119547         0.476657         0.342389
 C         1.524130         0.015412        -0.033091
 C         2.035568        -1.013211         1.015457
 O         3.379239        -1.535680         0.841431
 C         4.476503        -0.745769         1.284987
 C         4.625025         0.587233         0.579157
 C         3.909026         1.241929        -0.303778
 C         2.442018         0.945969        -0.750185
 O         1.852470        -0.206566        -1.406667
 H        -0.666015         0.138976        -0.333347
 H        -0.133008         0.351421         1.422159
 H        -0.191121         1.534957         0.219075
 H         2.116775        -0.409374         1.945795
 H         1.356718        -1.785390         1.135816
 H         4.418363        -0.494805         2.398475
 H         5.333872        -1.408185         0.914231
 H         5.334277         1.119781         1.116037
 H         4.136561         2.332637        -0.389357
 H         1.952235         1.860711        -0.979505
