19
Iteration:  2535charge 0 multiplicity 1
 C         0.076117         0.400955         0.336278
 C         1.509075         0.064618         0.015586
 C         2.067054        -0.758385         1.114481
 O         3.309937        -1.473379         0.914265
 C         4.463199        -0.647091         1.260476
 C         4.689736         0.628619         0.493821
 C         3.857169         1.191205        -0.364181
 C         2.429026         0.815448        -0.788161
 O         1.888733        -0.374413        -1.367122
 H        -0.444009        -0.446461         0.148841
 H        -0.035780         0.706871         1.388127
 H        -0.255881         1.193667        -0.259120
 H         2.274764        -0.087436         1.973289
 H         1.407700        -1.559063         1.496466
 H         4.531946        -0.640524         2.295099
 H         5.280194        -1.390664         0.983144
 H         5.624761         1.155327         0.717971
 H         4.188813         2.010843        -0.970444
 H         2.092492         1.743467        -1.313801
