19
Iteration:   218
 C        -0.085178         0.285604         0.284585
 C         1.440156         0.104992         0.003644
 C         2.062101        -0.625250         1.253588
 O         3.250402        -1.385736         1.048217
 C         4.488590        -0.653249         1.163106
 C         4.786720         0.527200         0.385240
 C         3.933979         1.156139        -0.525595
 C         2.435962         0.907887        -0.781362
 O         2.006771        -0.423554        -1.225745
 H        -0.271816         0.904643         1.197680
 H        -0.792679         0.660389        -0.509027
 H        -0.593981        -0.684093         0.476399
 H         2.201155         0.124865         2.004017
 H         1.397287        -1.424598         1.506268
 H         4.538740        -0.355541         2.184369
 H         5.314111        -1.482561         0.943249
 H         5.800089         0.839586         0.430266
 H         4.378146         1.748278        -1.237904
 H         2.111421         1.649107        -1.508958
