19
Iteration:   407
 C        -0.072247         0.446961         0.260703
 C         1.448712         0.007561         0.095081
 C         2.022216        -0.903653         1.184007
 O         3.351040        -1.313607         1.023381
 C         4.392951        -0.423365         1.314372
 C         4.778721         0.512966         0.206469
 C         3.927959         0.998976        -0.626907
 C         2.463689         0.875621        -0.665923
 O         1.997357        -0.382452        -1.174460
 H        -0.149770         0.790042         1.285356
 H        -0.199537         1.240097        -0.579550
 H        -0.762737        -0.352102         0.064039
 H         1.901719        -0.394273         2.241375
 H         1.511010        -1.862803         1.145923
 H         4.073123         0.145897         2.225342
 H         5.353971        -1.072625         1.546992
 H         5.862072         0.620042         0.080090
 H         4.250650         1.627598        -1.524229
 H         1.989520         1.684116        -1.235237
