19
Iteration:  1304
 C         0.110988         0.528467         0.123144
 C         1.511724        -0.020143         0.123495
 C         2.027944        -0.981543         1.148030
 O         3.426747        -1.473206         1.198108
 C         4.283125        -0.366650         1.332530
 C         4.759056         0.459419         0.193944
 C         3.867189         1.089947        -0.654849
 C         2.392219         0.933962        -0.608828
 O         1.914761        -0.362710        -1.249309
 H        -0.383063         0.823644         1.079395
 H         0.171358         1.449969        -0.505487
 H        -0.646966        -0.212379        -0.204558
 H         1.936543        -0.715888         2.265214
 H         1.557805        -1.917656         0.882659
 H         3.920898         0.367178         2.133928
 H         5.350833        -0.791314         1.658537
 H         5.883307         0.611835         0.107446
 H         4.263757         1.694845        -1.434713
 H         2.001146         1.805834        -1.002982
