19
Iteration:  2285
 C         0.026193         0.435576         0.426357
 C         1.507104        -0.036758        -0.040833
 C         2.043722        -0.904795         1.141706
 O         3.398780        -1.451940         1.120884
 C         4.422038        -0.440165         1.428360
 C         4.732031         0.553753         0.332900
 C         3.962597         1.030060        -0.626942
 C         2.489671         0.869017        -0.849923
 O         1.791049        -0.306658        -1.411555
 H         0.011245         0.568443         1.597912
 H        -0.268946         1.320412        -0.216099
 H        -0.704347        -0.313494         0.085914
 H         1.917749        -0.183793         2.041960
 H         1.387327        -1.797069         1.307390
 H         3.980536         0.209030         2.333328
 H         5.301648        -0.978666         1.744979
 H         5.709075         1.070124         0.414334
 H         4.480518         1.813080        -1.211961
 H         1.894519         1.810450        -1.154065
