19
Iteration:  4280charge 0 multiplicity 1
 C         0.125534         0.395772         0.299630
 C         1.550949         0.079645         0.008468
 C         2.111689        -0.904767         1.069395
 O         3.363599        -1.544709         0.748295
 C         4.488009        -0.801665         1.263936
 C         4.612650         0.603846         0.720872
 C         3.849993         1.171072        -0.222205
 C         2.424232         0.969978        -0.734470
 O         1.786057        -0.155203        -1.480349
 H        -0.358141        -0.377867         0.921346
 H         0.180719         1.436672         0.811712
 H        -0.533796         0.459494        -0.546124
 H         2.308605        -0.260653         1.973587
 H         1.422133        -1.669268         1.178249
 H         4.388976        -0.755278         2.314350
 H         5.458842        -1.420884         1.116227
 H         5.585178         1.076752         0.781667
 H         4.161755         2.158142        -0.680538
 H         1.974589         1.854153        -0.998715
