19
Iteration:  4380charge 0 multiplicity 1
 C        -0.037241         0.171108         0.126801
 C         1.480445         0.111516         0.100102
 C         2.089437        -0.869767         1.075771
 O         3.312195        -1.635305         0.910237
 C         4.489570        -0.788017         1.219378
 C         4.699671         0.446963         0.457915
 C         3.915705         1.172562        -0.301447
 C         2.396889         1.114376        -0.491098
 O         1.972228         0.136003        -1.427453
 H        -0.458348        -0.642429         0.876478
 H        -0.489671         1.145768         0.575345
 H        -0.558649        -0.079604        -0.821993
 H         2.015908        -0.328106         2.112787
 H         1.367865        -1.622301         1.146884
 H         4.625242        -0.551657         2.368995
 H         5.470803        -1.480563         1.166083
 H         5.692199         0.703109         0.265364
 H         4.301751         1.962837        -0.924877
 H         2.014756         2.058525        -0.703375
