19
Iteration:  1022charge 0 multiplicity 1
 C         0.025908         0.330768         0.042036
 C         1.536103         0.057455         0.122704
 C         2.059213        -0.591219         1.355227
 O         3.240688        -1.378036         1.093261
 C         4.488282        -0.696217         1.133625
 C         4.685674         0.522993         0.312497
 C         3.834845         1.216754        -0.509044
 C         2.448496         0.860469        -0.752977
 O         1.997903        -0.475424        -1.173172
 H        -0.404529         0.724038         0.883878
 H        -0.202016         0.971961        -0.815438
 H        -0.345411        -0.625053        -0.173205
 H         2.201835         0.168120         2.160356
 H         1.242736        -1.332622         1.626732
 H         4.707234        -0.415766         2.237117
 H         5.170405        -1.393671         0.806322
 H         5.667942         0.807913         0.516490
 H         4.160286         2.126186        -1.037285
 H         1.986033         1.677726        -1.325089
