19
Iteration:  4832charge 0 multiplicity 1
 C        -0.005313         0.287751         0.178269
 C         1.473154         0.078463         0.114279
 C         1.992169        -1.142856         0.980030
 O         3.328841        -1.532394         0.829396
 C         4.378102        -0.677104         1.252853
 C         4.811757         0.423038         0.311491
 C         3.883929         1.257926        -0.273754
 C         2.453549         1.072513        -0.460807
 O         2.014898         0.024301        -1.272777
 H        -0.238171         1.139777         0.985758
 H        -0.265324         0.768849        -0.841179
 H        -0.569338        -0.657545         0.329924
 H         1.750587        -0.837608         2.104710
 H         1.333080        -2.016420         0.807027
 H         4.031042        -0.140119         2.212583
 H         5.343571        -1.069525         1.676394
 H         5.832123         0.703386         0.246552
 H         4.259448         2.125218        -0.844942
 H         2.124878         1.992288        -0.773545
