19
Iteration:   717
 C         0.176016         0.377557         0.317332
 C         1.537078        -0.040644        -0.073814
 C         2.065474        -0.728721         1.195725
 O         3.341414        -1.419503         1.172508
 C         4.507687        -0.617701         1.402159
 C         4.679585         0.544486         0.471759
 C         3.826455         1.062325        -0.562176
 C         2.376908         0.899132        -0.862770
 O         1.825931        -0.297122        -1.492254
 H         0.023412         1.308975         0.905335
 H        -0.524485         0.396987        -0.639271
 H        -0.337453        -0.382867         0.981404
 H         2.102234         0.065064         2.053784
 H         1.273542        -1.408068         1.468711
 H         4.466671        -0.269819         2.424625
 H         5.459476        -1.278419         1.327196
 H         5.671715         1.023226         0.429360
 H         4.178246         1.752395        -1.181795
 H         1.921513         1.767004        -1.276806
