19
Iteration:  1078
 C         0.078544         0.294232         0.059037
 C         1.542145         0.114615         0.127702
 C         2.001618        -0.657911         1.350878
 O         3.207032        -1.385051         1.204351
 C         4.388112        -0.677882         1.073312
 C         4.713395         0.443912         0.217397
 C         3.830981         1.264702        -0.489154
 C         2.390633         0.923237        -0.787708
 O         2.152135        -0.453846        -1.186736
 H        -0.212578         0.564858         1.015367
 H        -0.292879         0.967207        -0.640817
 H        -0.383952        -0.668791        -0.009954
 H         2.102286        -0.046337         2.236587
 H         1.173664        -1.324511         1.693205
 H         4.581947        -0.345489         2.174405
 H         5.131649        -1.386743         0.971582
 H         5.775824         0.646722         0.200075
 H         4.029717         2.260504        -1.093344
 H         1.950851         1.763748        -1.396851
