19
Iteration:  2410charge 0 multiplicity 1
 C        -0.043103         0.174974         0.127947
 C         1.533743         0.105126         0.043113
 C         2.148493        -0.561007         1.234574
 O         3.272907        -1.539227         1.172763
 C         4.474811        -0.711487         1.170182
 C         4.731096         0.468923         0.310758
 C         3.885896         1.168459        -0.470236
 C         2.414646         1.021145        -0.744757
 O         1.921537        -0.270715        -1.290000
 H        -0.440564         1.158470         0.012881
 H        -0.415917        -0.458670        -0.635779
 H        -0.317872        -0.135443         1.156149
 H         2.282946         0.192338         2.071068
 H         1.296032        -1.187167         1.571790
 H         4.638691        -0.439067         2.256462
 H         5.303129        -1.461837         0.936558
 H         5.778903         0.763710         0.510073
 H         4.120981         2.164146        -0.897429
 H         1.839832         1.837108        -1.122281
