19
Iteration:   752charge 0 multiplicity 1
 C         0.021377         0.389085         0.366868
 C         1.496376         0.099870         0.029376
 C         2.023586        -0.806509         1.131006
 O         3.288369        -1.404783         0.927751
 C         4.395801        -0.498777         1.410805
 C         4.788942         0.594479         0.343907
 C         3.949139         1.086251        -0.577992
 C         2.444950         0.835099        -0.792576
 O         1.928206        -0.426890        -1.240187
 H        -0.124945         1.269365         0.987523
 H        -0.364076         0.555502        -0.712213
 H        -0.405339        -0.568649         0.709091
 H         1.918491        -0.226401         2.132539
 H         1.374261        -1.675194         1.143093
 H         4.018241        -0.038384         2.306731
 H         5.271435        -1.212383         1.747820
 H         5.837836         0.898823         0.344140
 H         4.473903         1.736998        -1.244928
 H         2.037871         1.641271        -1.313475
