19
Iteration:  3262
 C        -0.022159         0.347207         0.292211
 C         1.436575         0.023069         0.087572
 C         2.023296        -1.010604         1.111787
 O         3.340990        -1.403573         0.692239
 C         4.439451        -0.618925         1.281587
 C         4.802100         0.576927         0.504391
 C         4.001055         1.099316        -0.410334
 C         2.492544         1.003123        -0.559110
 O         1.824846        -0.199000        -1.313392
 H        -0.164300         1.209901        -0.318892
 H        -0.646544        -0.532777        -0.250517
 H        -0.265127         0.419119         1.472927
 H         2.171374        -0.419864         2.007622
 H         1.470123        -1.896944         1.173946
 H         4.230560        -0.116124         2.317618
 H         5.213572        -1.299340         1.351914
 H         5.910945         0.920943         0.537886
 H         4.275525         1.888858        -1.001530
 H         2.019090         1.899778        -1.017519
