19
Iteration:  3662charge 0 multiplicity 1
 C         0.020037         0.433724         0.335784
 C         1.525745         0.010181         0.064410
 C         2.081521        -1.016414         1.007430
 O         3.386527        -1.370184         0.644804
 C         4.368687        -0.645233         1.341824
 C         4.780594         0.533434         0.473541
 C         3.936984         1.189738        -0.315188
 C         2.469973         0.935517        -0.641064
 O         1.779870        -0.260846        -1.246638
 H        -0.190300         1.137833        -0.598145
 H        -0.664465        -0.311172         0.190648
 H        -0.012908         0.838131         1.381778
 H         1.990114        -0.647884         1.991543
 H         1.592828        -1.949540         0.894690
 H         3.861968        -0.270648         2.255050
 H         5.218918        -1.270458         1.561652
 H         5.849741         0.950691         0.677736
 H         4.461925         2.046590        -0.778867
 H         1.971218         1.753420        -1.116340
