19
Iteration:  3059
 C         0.177808         0.488548         0.409254
 C         1.627569         0.035048         0.035936
 C         2.021640        -1.110848         0.901644
 O         3.379706        -1.563560         0.863912
 C         4.362845        -0.572559         1.331905
 C         4.644717         0.570640         0.464312
 C         3.893246         1.211905        -0.362541
 C         2.439168         0.981736        -0.679145
 O         1.799552        -0.189429        -1.365193
 H        -0.311203         0.961848        -0.441165
 H        -0.361422        -0.387908         0.651340
 H         0.113938         1.156781         1.208016
 H         1.741174        -0.816838         1.998016
 H         1.414048        -2.016604         0.742529
 H         4.113165        -0.320396         2.322715
 H         5.313920        -1.168850         1.458430
 H         5.716336         0.937710         0.674596
 H         4.446213         1.921819        -0.914483
 H         1.885936         1.996771        -0.865783
