19
Iteration:  3722charge 0 multiplicity 1
 C         0.221869         0.498334         0.391363
 C         1.600205         0.008745         0.021491
 C         2.051134        -1.057574         1.018099
 O         3.328452        -1.597743         0.931760
 C         4.382008        -0.663563         1.220834
 C         4.623560         0.668480         0.519200
 C         3.874110         1.320301        -0.376943
 C         2.491374         0.968160        -0.741709
 O         1.810633        -0.282646        -1.403281
 H        -0.038219         1.444974         0.281743
 H        -0.577925        -0.240301        -0.031099
 H        -0.030529         0.468776         1.430444
 H         1.837792        -0.702123         2.038863
 H         1.328634        -1.934015         0.913061
 H         4.395292        -0.536300         2.382642
 H         5.284767        -1.189196         1.152601
 H         5.492290         1.192798         0.674682
 H         4.147459         2.257720        -0.815857
 H         1.949485         1.874930        -1.081010
