19
Iteration:  3695
 C         0.148950         0.611287         0.355248
 C         1.508223        -0.040322         0.091997
 C         2.079400        -1.097500         1.008916
 O         3.379193        -1.457841         0.720457
 C         4.405280        -0.652413         1.257812
 C         4.595563         0.691051         0.608634
 C         3.832064         1.134263        -0.405477
 C         2.456353         0.887586        -0.686904
 O         1.908987        -0.300609        -1.293313
 H         0.079599         1.774455        -0.083597
 H        -0.697986         0.132630         0.018191
 H        -0.177341         0.771688         1.447607
 H         1.881759        -0.915908         2.062351
 H         1.570883        -2.000176         0.744131
 H         4.342909        -0.651203         2.341590
 H         5.428869        -1.128238         1.169178
 H         5.499132         1.418405         0.772885
 H         4.187829         2.012448        -1.022867
 H         1.909577         1.777202        -1.014643
