19
Iteration:  3536
 C         0.036170         0.361963         0.294329
 C         1.572852         0.101048         0.135742
 C         2.076953        -1.006314         1.101521
 O         3.325152        -1.355624         0.658343
 C         4.368211        -0.646621         1.294289
 C         4.706088         0.494616         0.479846
 C         3.920752         1.151141        -0.410318
 C         2.495907         0.974082        -0.660766
 O         1.854220        -0.241366        -1.238234
 H        -0.299737         1.236516        -0.093881
 H        -0.343004        -0.504846        -0.165086
 H        -0.213876         0.445958         1.323032
 H         2.067704        -0.708264         2.106463
 H         1.336462        -1.837776         1.029270
 H         4.054331        -0.213528         2.297021
 H         5.320474        -1.377088         1.410242
 H         5.718766         0.889901         0.621158
 H         4.356536         2.074782        -0.879576
 H         1.954179         1.862440        -1.154796
