19
Iteration:  3177charge 0 multiplicity 1
 C         0.091055         0.295560         0.234735
 C         1.535547         0.004550         0.004681
 C         2.042869        -1.126427         1.050481
 O         3.370701        -1.481886         0.987105
 C         4.366871        -0.514951         1.346973
 C         4.779283         0.416724         0.216548
 C         3.896566         1.107914        -0.455781
 C         2.380585         1.062773        -0.433913
 O         1.902544         0.062797        -1.336870
 H        -0.331804         0.882204        -0.529500
 H        -0.606151        -0.594311         0.343735
 H        -0.085990         0.914926         1.234351
 H         1.594528        -0.956032         2.045550
 H         1.575277        -2.101115         0.687954
 H         4.014385         0.093113         2.241530
 H         5.177691        -1.174737         1.752338
 H         5.931508         0.474596         0.069257
 H         4.296118         1.712396        -1.222952
 H         1.899017         1.983025        -0.552968
