19
Iteration:   518
 C        -0.021614         0.458164         0.102527
 C         1.484970         0.083710         0.187306
 C         2.115067        -0.873881         1.287569
 O         3.326625        -1.367058         0.808647
 C         4.359258        -0.521170         1.255325
 C         4.788872         0.522258         0.336638
 C         3.914737         1.097936        -0.569520
 C         2.431772         0.815260        -0.730440
 O         1.942594        -0.437115        -1.074008
 H        -0.321965         1.451492         0.621457
 H        -0.372715         0.629434        -0.901060
 H        -0.712549        -0.338733         0.546738
 H         2.364473        -0.260315         2.181576
 H         1.439964        -1.708353         1.390850
 H         3.980798        -0.003567         2.105599
 H         5.267851        -1.178761         1.729837
 H         5.776201         0.900783         0.467602
 H         4.363670         2.129003        -1.065452
 H         1.977660         1.720260        -1.223735
