19
Iteration:  2939
 C         0.116728         0.370991         0.276417
 C         1.603036         0.054607         0.009877
 C         2.076522        -0.821913         1.104606
 O         3.267760        -1.505747         0.937196
 C         4.444085        -0.785103         1.089250
 C         4.582793         0.578331         0.473621
 C         3.807065         1.314665        -0.258071
 C         2.427059         0.969043        -0.744885
 O         1.982442        -0.323958        -1.291442
 H        -0.299777         1.456295         0.014074
 H        -0.647044        -0.348093        -0.230779
 H         0.053989         0.311946         1.425529
 H         2.133269        -0.272744         2.094551
 H         1.315778        -1.566108         1.233581
 H         4.692676        -0.676937         2.196545
 H         5.246283        -1.414334         0.609106
 H         5.651048         0.917285         0.664461
 H         4.144077         2.287370        -0.497823
 H         1.962924         1.879967        -1.214999
