19
Iteration:  2239charge 0 multiplicity 1
 C         0.065794         0.366925         0.161764
 C         1.503624         0.041964         0.213370
 C         2.018712        -1.043827         1.162633
 O         3.409435        -1.287045         0.967554
 C         4.289562        -0.263515         1.425303
 C         4.755072         0.367756         0.207825
 C         3.918279         0.938826        -0.735430
 C         2.444546         0.948991        -0.550927
 O         1.978853        -0.237896        -1.193102
 H        -0.127893         0.716966         1.221965
 H        -0.281919         1.164073        -0.505992
 H        -0.777846        -0.473868        -0.062243
 H         1.783819        -0.856266         2.288582
 H         1.477949        -1.974636         0.842141
 H         3.745133         0.464645         2.201770
 H         5.076568        -0.817417         1.895710
 H         5.852671         0.218357        -0.109371
 H         4.232689         1.355080        -1.732621
 H         1.815376         1.794959        -0.998812
