19
Iteration:  4950
 C         0.119259         0.451700         0.265987
 C         1.532327        -0.024868         0.010215
 C         2.052882        -1.092006         1.034016
 O         3.375440        -1.593553         0.762445
 C         4.340853        -0.663105         1.238602
 C         4.693995         0.595321         0.533652
 C         3.908055         1.280991        -0.331569
 C         2.432999         0.985741        -0.582252
 O         1.899752        -0.121240        -1.325613
 H        -0.039393         0.894022         1.249328
 H        -0.094373         1.232435        -0.424829
 H        -0.632624        -0.288328         0.173566
 H         1.851635        -0.665199         2.073276
 H         1.371094        -2.042873         0.940966
 H         4.079214        -0.396271         2.289962
 H         5.156058        -1.317891         1.413623
 H         5.682204         0.935845         0.779620
 H         4.360912         2.209818        -0.679398
 H         1.846760         1.938910        -0.801334
