19
Iteration:   502
 C        -0.005354         0.461233         0.166511
 C         1.456211        -0.016304         0.087568
 C         2.021815        -0.811381         1.250865
 O         3.359990        -1.313309         0.831332
 C         4.482856        -0.550265         1.352908
 C         4.854485         0.569488         0.357961
 C         3.943056         1.101502        -0.531851
 C         2.469663         0.839216        -0.654002
 O         1.772023        -0.467412        -1.202627
 H        -0.059795         1.353611         0.713010
 H        -0.181197         0.544786        -0.961840
 H        -0.661670        -0.268555         0.567789
 H         2.010381        -0.199277         2.148908
 H         1.409574        -1.780551         1.365037
 H         4.269895        -0.046947         2.399040
 H         5.233817        -1.237573         1.456338
 H         5.871062         1.079690         0.364228
 H         4.241358         1.747701        -1.198253
 H         2.024409         1.642486        -1.232493
