19
Iteration:  3642charge 0 multiplicity 1
 C         0.081111         0.332760         0.344286
 C         1.513226         0.057068         0.030123
 C         1.971499        -0.984334         1.060089
 O         3.314849        -1.475341         0.804071
 C         4.400276        -0.629216         1.297883
 C         4.781099         0.541411         0.401846
 C         3.925508         1.143381        -0.396665
 C         2.446824         0.994386        -0.567197
 O         1.911213        -0.111708        -1.348511
 H        -0.485726         0.615493        -0.555492
 H        -0.425765        -0.629304         0.480598
 H        -0.186246         0.769040         1.308968
 H         1.893173        -0.702733         2.125471
 H         1.442107        -1.952083         0.877687
 H         4.166501        -0.224872         2.388122
 H         5.274878        -1.188211         1.372534
 H         5.866636         0.844392         0.467558
 H         4.403190         1.974845        -1.011195
 H         1.945826         1.899387        -0.757189
