19
Iteration:  2459charge 0 multiplicity 1
 C         0.003668         0.352737         0.162100
 C         1.515832        -0.014280         0.077203
 C         2.027353        -0.761200         1.224762
 O         3.224031        -1.469755         1.120047
 C         4.491855        -0.751209         1.054395
 C         4.713660         0.541624         0.279182
 C         3.838381         1.338579        -0.450706
 C         2.419432         0.963126        -0.675096
 O         2.078016        -0.354915        -1.197475
 H        -0.222267         0.610312        -0.940639
 H        -0.636080        -0.553080         0.391464
 H        -0.165488         1.178102         0.826621
 H         2.109401         0.052927         1.959998
 H         1.330877        -1.508347         1.675684
 H         4.639462        -0.442818         2.183266
 H         5.217164        -1.592200         0.886756
 H         5.777724         0.828177         0.412919
 H         4.062118         2.284445        -0.895753
 H         1.878698         1.771171        -1.275830
