19
Iteration:   149charge 0 multiplicity 1
 C        -0.053551         0.388139         0.059623
 C         1.457255         0.015501         0.097017
 C         2.065767        -0.564598         1.377582
 O         3.252078        -1.340436         1.120987
 C         4.566232        -0.793751         1.058798
 C         4.694080         0.467455         0.265588
 C         3.810808         1.205940        -0.476267
 C         2.336185         0.910763        -0.779197
 O         2.146497        -0.476662        -1.138869
 H        -0.407072         0.498593         1.150999
 H        -0.275279         1.241188        -0.488066
 H        -0.718867        -0.410449        -0.411003
 H         2.285345         0.192591         2.116799
 H         1.376433        -1.366065         1.774222
 H         4.900156        -0.493589         2.037230
 H         5.248543        -1.707468         0.735977
 H         5.653956         1.017013         0.437247
 H         4.121671         2.254118        -0.834194
 H         1.864162         1.758369        -1.421361
