19
Iteration:  1612charge 0 multiplicity 1
 C         0.037360         0.396074         0.050485
 C         1.509075         0.027852         0.098504
 C         2.056558        -0.766280         1.301576
 O         3.259911        -1.369357         1.052376
 C         4.534762        -0.596076         1.230139
 C         4.691611         0.509952         0.295320
 C         3.847075         1.131678        -0.495300
 C         2.370082         0.904444        -0.692267
 O         1.974235        -0.395912        -1.219860
 H        -0.030187         1.313665         0.594943
 H        -0.277559         0.513571        -0.980575
 H        -0.396810        -0.431374         0.760504
 H         2.195214        -0.103056         2.185507
 H         1.395204        -1.646162         1.627262
 H         4.617856        -0.181303         2.278384
 H         5.277137        -1.348293         1.098799
 H         5.738680         0.763306         0.118446
 H         4.209395         1.850013        -1.161264
 H         1.907424         1.691045        -1.257643
