19
Iteration:  3319
 C         0.167841         0.537024         0.366855
 C         1.540102         0.049385         0.054559
 C         2.071993        -1.016013         1.038412
 O         3.366168        -1.583570         0.784191
 C         4.416622        -0.735669         1.158368
 C         4.549589         0.673195         0.566404
 C         3.806876         1.343610        -0.299490
 C         2.404570         0.884464        -0.787836
 O         1.957893        -0.351925        -1.325814
 H        -0.162409         1.371162        -0.389661
 H        -0.718076        -0.139222         0.658008
 H         0.321670         1.194660         1.388043
 H         2.118285        -0.640275         2.066146
 H         1.352077        -1.780145         1.189762
 H         4.476028        -0.416500         2.327660
 H         5.313692        -1.289561         1.028776
 H         5.515000         1.111920         0.933152
 H         4.046131         2.386462        -0.585246
 H         2.006425         1.795534        -1.093311
