19
Iteration:  1572charge 0 multiplicity 1
 C         0.121380         0.403049         0.120708
 C         1.583648         0.109627         0.101699
 C         1.979343        -0.730314         1.400352
 O         3.209990        -1.476062         1.043367
 C         4.447992        -0.566559         1.089325
 C         4.619279         0.580941         0.240179
 C         3.791129         1.275115        -0.468086
 C         2.452189         0.831184        -0.846044
 O         2.126600        -0.539499        -1.075709
 H        -0.217896         0.879997         1.041361
 H        -0.265027         1.230951        -0.599866
 H        -0.568324        -0.392465        -0.015457
 H         1.971634        -0.213373         2.375787
 H         1.097669        -1.295119         1.419573
 H         4.504980        -0.324206         2.147249
 H         5.227384        -1.391269         0.696569
 H         5.719571         0.776451         0.261346
 H         4.277369         2.101693        -0.899826
 H         1.877296         1.501736        -1.516268
