19
Iteration:  2783charge 0 multiplicity 1
 C        -0.061146         0.315688         0.211796
 C         1.472944         0.018608         0.022914
 C         2.077709        -0.966516         1.071494
 O         3.368248        -1.501239         0.915398
 C         4.514586        -0.695427         1.310061
 C         4.751845         0.434551         0.376295
 C         3.897221         1.233357        -0.356387
 C         2.445630         1.137816        -0.574393
 O         1.880316        -0.109558        -1.332914
 H        -0.381743         0.648472        -0.749393
 H        -0.641940        -0.618370         0.475309
 H        -0.335468         1.081498         0.990301
 H         1.898638        -0.511375         2.121344
 H         1.403860        -1.808619         1.095499
 H         4.307160        -0.466678         2.431191
 H         5.355766        -1.455198         1.350130
 H         5.767095         0.670050         0.275738
 H         4.480725         1.895001        -1.045109
 H         1.930608         2.078587        -0.968725
