19
Iteration:  4404charge 0 multiplicity 1
 C         0.047484         0.022810         0.173482
 C         1.521179         0.081015         0.015305
 C         2.022828        -0.913332         1.030428
 O         3.299337        -1.502416         0.896002
 C         4.441265        -0.774377         1.307333
 C         4.802173         0.297070         0.385155
 C         3.956333         1.188996        -0.272074
 C         2.434858         1.256037        -0.502990
 O         1.834661         0.148262        -1.409539
 H        -0.497413        -0.725142         0.893828
 H        -0.272088         0.968873         0.599548
 H        -0.545850        -0.073466        -0.817903
 H         1.940919        -0.127563         1.892744
 H         1.279465        -1.712328         1.315361
 H         4.628272        -0.429616         2.424039
 H         5.276927        -1.615112         1.380011
 H         5.797193         0.746277         0.373092
 H         4.412783         1.992230        -0.794115
 H         2.065737         2.226894        -0.658184
