19
Iteration:  3426
 C        -0.000739         0.244151         0.176372
 C         1.477357         0.039080         0.111900
 C         2.013067        -0.854951         1.170663
 O         3.317774        -1.428881         0.758126
 C         4.417673        -0.725202         1.168359
 C         4.741170         0.459821         0.318869
 C         3.839619         1.141198        -0.362829
 C         2.390512         1.088445        -0.480604
 O         2.089873        -0.109573        -1.193291
 H        -0.405200         0.373062        -0.749638
 H        -0.463144        -0.673011         0.514623
 H        -0.298847         0.992994         0.862213
 H         2.117502        -0.268070         2.172536
 H         1.352961        -1.778282         1.235921
 H         4.332008        -0.440474         2.215792
 H         5.260138        -1.521375         1.108923
 H         5.863108         0.647797         0.320946
 H         4.206374         1.991481        -0.925112
 H         1.917697         2.060144        -0.987738
