19
Iteration:  2302charge 0 multiplicity 1
 C         0.207412         0.491640         0.390978
 C         1.561754        -0.018076        -0.018867
 C         2.103849        -0.882856         1.132934
 O         3.354959        -1.386897         1.121798
 C         4.393446        -0.532337         1.449458
 C         4.641101         0.570382         0.392623
 C         3.781962         1.082605        -0.606914
 C         2.346864         0.855812        -0.850232
 O         1.878936        -0.378391        -1.437709
 H         0.326353         0.712903         1.409371
 H        -0.064625         1.342712        -0.177794
 H        -0.618400        -0.301553         0.273319
 H         1.997272        -0.244677         1.975781
 H         1.443526        -1.741848         1.266473
 H         4.349551        -0.128489         2.393930
 H         5.333681        -1.149695         1.358204
 H         5.728560         0.838172         0.496968
 H         4.225712         1.835811        -1.265337
 H         2.039512         1.740681        -1.320275
