19
Iteration:   939
 C         0.122161         0.490520         0.164901
 C         1.631544         0.096174         0.113911
 C         2.063352        -0.865690         1.290871
 O         3.225042        -1.469772         1.018999
 C         4.342116        -0.556213         1.205034
 C         4.622989         0.590056         0.322821
 C         3.815599         1.242032        -0.612075
 C         2.441938         0.839763        -0.792716
 O         2.052619        -0.510042        -1.151774
 H        -0.031722         1.312042         1.011197
 H        -0.316445         0.802968        -0.776740
 H        -0.539087        -0.352576         0.618236
 H         1.872433        -0.416700         2.265487
 H         1.327707        -1.638600         1.267043
 H         4.394923        -0.047100         2.269199
 H         5.353922        -1.176430         1.251839
 H         5.706704         0.909742         0.507484
 H         4.339582         2.086283        -1.140021
 H         1.918943         1.618597        -1.419835
