19
Iteration:  4779
 C        -0.013060         0.226862         0.176447
 C         1.555027         0.073212         0.033764
 C         2.104226        -0.989351         1.054926
 O         3.340734        -1.614794         0.953337
 C         4.436781        -0.729129         1.305097
 C         4.685687         0.400637         0.374565
 C         3.833901         1.148524        -0.333179
 C         2.375482         1.195242        -0.549087
 O         2.003269         0.092518        -1.397124
 H        -0.365018        -0.097398         1.137732
 H        -0.503970         1.247471         0.296266
 H        -0.491907        -0.219230        -0.664963
 H         2.062516        -0.344941         1.955567
 H         1.391119        -1.721275         0.942736
 H         4.262391        -0.441758         2.342006
 H         5.405207        -1.312798         1.258178
 H         5.699206         0.665677         0.524573
 H         4.375233         2.013227        -0.727993
 H         1.873797         2.131485        -0.679794
