19
Iteration:  3057
 C         0.169187         0.469796         0.402666
 C         1.609078         0.031261         0.039908
 C         2.017885        -1.099454         0.915306
 O         3.376434        -1.564166         0.855650
 C         4.360824        -0.574322         1.333843
 C         4.659995         0.583980         0.470292
 C         3.905965         1.197586        -0.377569
 C         2.451113         0.992454        -0.664555
 O         1.802320        -0.174116        -1.360131
 H        -0.307449         0.853316        -0.395203
 H        -0.352492        -0.389370         0.625204
 H         0.093483         1.145743         1.183310
 H         1.726020        -0.747186         2.014906
 H         1.416909        -2.063440         0.754349
 H         4.093607        -0.330187         2.280427
 H         5.285541        -1.217743         1.441360
 H         5.715837         0.911056         0.639639
 H         4.447229         1.937811        -0.938525
 H         1.877326         1.968626        -0.941226
