19
Iteration:   311charge 0 multiplicity 1
 C         0.262141         0.537958         0.345139
 C         1.634594         0.048054         0.112601
 C         1.984363        -0.944827         1.182495
 O         3.299444        -1.385360         1.219784
 C         4.415283        -0.570146         1.301039
 C         4.621231         0.513114         0.160020
 C         3.744784         1.224560        -0.582466
 C         2.418454         0.793866        -0.869576
 O         1.962203        -0.427079        -1.329522
 H         0.210734         1.121972         1.324183
 H        -0.122018         1.101230        -0.496510
 H        -0.399892        -0.381255         0.424780
 H         1.732191        -0.590029         2.149542
 H         1.452257        -1.856675         0.909514
 H         4.344729         0.128239         2.113503
 H         5.208167        -1.213178         1.425954
 H         5.615375         0.948982         0.359792
 H         3.979316         2.389555        -0.870549
 H         1.769926         1.581693        -1.333690
