19
Iteration:  2203charge 0 multiplicity 1
 C         0.127299         0.383211         0.229395
 C         1.570396        -0.054426         0.074654
 C         2.002247        -1.043219         1.177087
 O         3.386065        -1.461980         1.211273
 C         4.239147        -0.319124         1.365710
 C         4.785185         0.408965         0.097970
 C         3.953239         1.137629        -0.676087
 C         2.424679         0.944404        -0.633871
 O         1.858956        -0.223698        -1.310674
 H         0.199906         0.997872         1.071260
 H        -0.149695         1.030843        -0.589656
 H        -0.534584        -0.530834         0.519638
 H         1.717872        -0.626765         2.200118
 H         1.439128        -1.970540         1.016083
 H         3.706800         0.451609         2.099927
 H         5.205565        -0.600584         1.928633
 H         5.810498         0.517406         0.059968
 H         4.432278         1.869294        -1.278675
 H         1.972611         1.809614        -1.013357
