19
Iteration:  3513
 C         0.052047         0.493722         0.376035
 C         1.510259         0.015168         0.033173
 C         2.110904        -0.912832         1.010121
 O         3.394233        -1.483456         0.686785
 C         4.417006        -0.691782         1.321993
 C         4.770286         0.621542         0.591317
 C         3.894547         1.170566        -0.346245
 C         2.434673         0.882980        -0.734059
 O         1.772009        -0.284649        -1.308278
 H        -0.098269         1.472304         0.124176
 H        -0.568354        -0.237425        -0.162226
 H        -0.123601         0.512084         1.415474
 H         2.114673        -0.476774         1.955278
 H         1.346889        -1.756235         1.084470
 H         4.103582        -0.379820         2.378022
 H         5.425012        -1.345125         1.289389
 H         5.741811         1.109774         0.910706
 H         4.163087         2.149460        -0.828296
 H         1.903028         1.755170        -1.223583
