19
Iteration:   105
 C        -0.125953         0.140205         0.209501
 C         1.467124         0.159460         0.081201
 C         2.193259        -0.470645         1.306064
 O         3.208024        -1.389928         0.917660
 C         4.460487        -0.763098         1.183466
 C         4.747445         0.513704         0.396544
 C         3.993272         1.144554        -0.469165
 C         2.523318         0.910543        -0.880613
 O         1.875018        -0.399444        -1.169968
 H        -0.392757         0.751138         1.171914
 H        -0.552966         0.562999        -0.694027
 H        -0.416555        -0.982411         0.277949
 H         2.601521         0.288699         1.950973
 H         1.440838        -1.057607         1.909180
 H         4.463302        -0.487708         2.224644
 H         5.393102        -1.563712         1.038362
 H         5.600598         1.114530         0.861577
 H         4.311734         2.142866        -1.010713
 H         2.054769         1.712572        -1.578295
