19
Iteration:  3545
 C         0.056572         0.353582         0.304958
 C         1.510210         0.053903         0.142610
 C         2.031330        -0.955805         1.070677
 O         3.322460        -1.418234         0.716441
 C         4.335565        -0.607606         1.275143
 C         4.760602         0.542978         0.425169
 C         3.934588         1.126177        -0.415605
 C         2.423163         0.988010        -0.608707
 O         1.960089        -0.188301        -1.214276
 H        -0.369708         1.125187        -0.327201
 H        -0.615065        -0.541540        -0.145667
 H        -0.333668         0.422723         1.307968
 H         1.992610        -0.694866         2.097948
 H         1.416766        -1.909502         0.853594
 H         4.206101        -0.392831         2.299233
 H         5.288257        -1.275079         1.227153
 H         5.893408         0.617185         0.502304
 H         4.366237         1.894482        -1.121987
 H         1.957489         1.923964        -1.020592
