19
Iteration:  1270
 C         0.054151         0.182223         0.361426
 C         1.496139         0.092008         0.016947
 C         2.021954        -0.845262         1.193801
 O         3.322260        -1.301298         1.034654
 C         4.320209        -0.376380         1.442968
 C         4.796486         0.410712         0.322738
 C         4.064885         0.941476        -0.646530
 C         2.431873         0.982526        -0.752226
 O         1.862609        -0.222919        -1.370238
 H         0.008740         0.641651         1.377180
 H        -0.506179         0.833797        -0.392653
 H        -0.376188        -0.774707         0.187892
 H         1.725212        -0.273133         2.153170
 H         1.373329        -1.734086         1.108992
 H         4.088517         0.153422         2.412608
 H         5.056509        -1.179464         1.845924
 H         5.883987         0.437449         0.188133
 H         4.467440         1.303572        -1.505498
 H         2.038768         1.812230        -1.238459
