19
Iteration:   402charge 0 multiplicity 1
 C        -0.122849         0.420650         0.243863
 C         1.424539         0.022324         0.118011
 C         2.015149        -0.893307         1.159488
 O         3.355516        -1.292463         0.997030
 C         4.442972        -0.397795         1.317040
 C         4.836399         0.483116         0.243077
 C         3.943460         1.014069        -0.632658
 C         2.449295         0.851463        -0.629353
 O         1.963266        -0.383605        -1.165879
 H        -0.219958         0.931102         1.236289
 H        -0.187555         1.202553        -0.481860
 H        -0.842655        -0.416998         0.043150
 H         1.852380        -0.414708         2.069088
 H         1.500317        -1.892080         1.057287
 H         4.233013         0.188237         2.214350
 H         5.220769        -1.020676         1.526887
 H         5.916687         0.608760         0.076867
 H         4.406709         1.417772        -1.544316
 H         2.099079         1.678048        -1.281237
