19
Iteration:  2712charge 0 multiplicity 1
 C         0.155476         0.623990         0.458803
 C         1.593935        -0.009167         0.079803
 C         2.037597        -1.113870         0.934303
 O         3.419559        -1.565008         0.844635
 C         4.332765        -0.590380         1.411751
 C         4.690569         0.645813         0.445854
 C         3.804353         1.191844        -0.439221
 C         2.435800         0.957877        -0.730623
 O         1.894014        -0.301715        -1.386442
 H         0.022684         1.700432         0.274665
 H        -0.597364         0.314055        -0.283026
 H        -0.062407         0.382328         1.460757
 H         1.692739        -1.070661         1.939811
 H         1.443782        -1.986835         0.491623
 H         3.958083        -0.236612         2.414040
 H         5.223093        -1.329692         1.657973
 H         5.610540         1.140835         0.782649
 H         4.186723         2.056288        -0.983791
 H         1.850384         1.888426        -0.983908
