19
Iteration:  4064charge 0 multiplicity 1
 C         0.131033         0.534605         0.353300
 C         1.500902         0.034389         0.164045
 C         1.947093        -1.213085         0.976100
 O         3.358510        -1.426429         0.705702
 C         4.236862        -0.535090         1.317025
 C         4.776946         0.575929         0.436240
 C         3.928263         1.177976        -0.473428
 C         2.531321         0.938863        -0.640960
 O         1.953993        -0.289428        -1.206953
 H         0.010537         1.521266        -0.047852
 H        -0.771505         0.024912        -0.075865
 H         0.007115         0.525678         1.377702
 H         1.889408        -1.200973         2.042849
 H         1.489160        -2.219816         0.526054
 H         3.776785         0.047149         2.222334
 H         5.085012        -1.072013         1.635074
 H         5.653809         1.034178         0.719423
 H         4.143119         2.197163        -0.842110
 H         2.038863         1.900348        -1.092751
