19
Iteration:  1706
 C         0.106097         0.618782         0.244307
 C         1.511231        -0.010900         0.142925
 C         2.026143        -1.113912         1.124482
 O         3.380693        -1.513299         1.031831
 C         4.316515        -0.347206         1.311067
 C         4.735513         0.579790         0.301737
 C         3.900668         1.128879        -0.617566
 C         2.401566         0.896859        -0.661107
 O         1.942589        -0.462105        -1.249625
 H         0.305323         1.589962         0.874858
 H        -0.093681         1.082094        -0.720437
 H        -0.713958         0.122663         0.653460
 H         1.865156        -0.701862         2.160759
 H         1.453245        -1.983968         0.906858
 H         3.810034         0.243712         2.159088
 H         5.271453        -0.710757         1.877506
 H         5.742547         0.838889         0.156332
 H         4.310563         1.834713        -1.480466
 H         1.852193         1.717892        -1.208851
