19
Iteration:  3646
 C         0.102034         0.339066         0.318388
 C         1.500151         0.075747         0.058753
 C         1.986938        -1.003080         1.040064
 O         3.324601        -1.446046         0.773752
 C         4.381396        -0.616176         1.305985
 C         4.804099         0.538362         0.424307
 C         3.940535         1.153463        -0.387398
 C         2.453010         0.980885        -0.563391
 O         1.873189        -0.157734        -1.352572
 H        -0.478699         0.804792        -0.450243
 H        -0.491233        -0.711386         0.521625
 H        -0.173321         0.799005         1.271444
 H         1.978732        -0.708337         2.165872
 H         1.358092        -1.968330         0.911997
 H         4.201828        -0.225879         2.297863
 H         5.316828        -1.336044         1.492518
 H         5.794450         0.837861         0.500174
 H         4.281995         2.033798        -0.936143
 H         1.975329         1.993423        -0.846204
