19
Iteration:   851charge 0 multiplicity 1
 C         0.045020         0.192911         0.400500
 C         1.581718         0.165908        -0.032952
 C         2.065049        -0.804808         1.167134
 O         3.311129        -1.397245         1.134675
 C         4.364285        -0.453301         1.407541
 C         4.701640         0.498815         0.365661
 C         3.948363         0.919688        -0.660835
 C         2.461460         0.992338        -0.804856
 O         1.830325        -0.235081        -1.413905
 H        -0.007864         0.335991         1.552568
 H        -0.587520         0.908050        -0.160348
 H        -0.242056        -0.895560         0.272876
 H         2.240231        -0.040031         2.022462
 H         1.305641        -1.575504         1.297281
 H         4.023711         0.109403         2.267516
 H         5.299259        -1.113855         1.708792
 H         5.789178         0.567218         0.363637
 H         4.595949         1.345758        -1.471037
 H         2.249192         1.814762        -1.455918
