19
Iteration:  2174charge 0 multiplicity 1
 C         0.191415         0.391447         0.384099
 C         1.567564         0.039625         0.027291
 C         2.033413        -0.933608         1.027046
 O         3.394981        -1.462193         1.214239
 C         4.391196        -0.417510         1.479091
 C         4.613080         0.540734         0.340610
 C         3.872970         0.993243        -0.686942
 C         2.354547         0.948121        -0.803797
 O         1.884635        -0.288329        -1.409532
 H         0.267258         1.223417         1.165882
 H        -0.400400         0.994755        -0.310306
 H        -0.398652        -0.518467         0.892674
 H         1.625332        -0.587981         1.995408
 H         1.395338        -1.817528         0.759774
 H         4.201062         0.018932         2.425164
 H         5.312473        -0.887810         1.587997
 H         5.695796         0.803080         0.172823
 H         4.469284         1.520955        -1.472929
 H         2.013297         1.981252        -1.259763
