19
Iteration:  4559
 C         0.035971         0.388431         0.236162
 C         1.562067         0.022711         0.068253
 C         2.055462        -1.064714         0.983982
 O         3.377845        -1.558807         0.948874
 C         4.347212        -0.649528         1.351321
 C         4.734392         0.537630         0.373652
 C         3.909783         1.213047        -0.395468
 C         2.451565         1.009382        -0.546105
 O         1.882974        -0.071278        -1.360682
 H        -0.672267        -0.258879        -0.354943
 H        -0.180101         0.439421         1.340998
 H        -0.238841         1.426940        -0.089165
 H         1.811530        -0.768552         2.046401
 H         1.532933        -2.005210         0.789631
 H         3.939961        -0.154415         2.170149
 H         5.291142        -1.221881         1.544418
 H         5.822936         0.548727         0.213770
 H         4.267956         2.050735        -1.084836
 H         2.042767         2.014284        -0.810142
