19
Iteration:  1886
 C         0.002450         0.421727         0.243865
 C         1.486456         0.020047         0.013850
 C         2.112282        -0.716180         1.204513
 O         3.296494        -1.376006         0.975727
 C         4.466769        -0.611731         1.313123
 C         4.703474         0.580225         0.416471
 C         3.895706         1.039006        -0.566180
 C         2.415023         0.852866        -0.800159
 O         1.951064        -0.392030        -1.243805
 H        -0.073490         1.296041         0.805377
 H        -0.650955         0.379106        -0.647684
 H        -0.417163        -0.492493         0.811277
 H         2.208911        -0.114438         2.139389
 H         1.460542        -1.601318         1.590719
 H         4.281154        -0.142540         2.307612
 H         5.304010        -1.247959         1.441874
 H         5.751115         1.003358         0.485768
 H         4.294080         1.916468        -1.132627
 H         1.840630         1.727507        -1.381794
