19
Iteration:  3624
 C         0.025543         0.238434         0.288811
 C         1.552194         0.033842         0.041682
 C         2.050768        -1.050227         1.005875
 O         3.332142        -1.541171         1.004980
 C         4.385643        -0.672817         1.292153
 C         4.658616         0.492307         0.341358
 C         3.901087         1.197749        -0.482957
 C         2.410521         1.144000        -0.538399
 O         2.006005         0.005354        -1.341693
 H        -0.453899         0.715404        -0.514375
 H        -0.729796        -0.614482         0.746155
 H        -0.045012         0.984781         1.101736
 H         1.947203        -0.528197         2.035358
 H         1.343316        -1.948337         1.020146
 H         4.415094        -0.314654         2.290422
 H         5.303490        -1.432544         1.294171
 H         5.690561         0.583754         0.232746
 H         4.303340         1.860276        -1.263274
 H         1.951825         2.146675        -0.899826
