19
Iteration:  3269charge 0 multiplicity 1
 C        -0.029389         0.411486         0.306013
 C         1.426181        -0.012353         0.061821
 C         2.089536        -0.986694         1.109658
 O         3.354483        -1.373410         0.650143
 C         4.440823        -0.635305         1.302098
 C         4.824353         0.600907         0.542002
 C         3.955682         1.097215        -0.391744
 C         2.473532         0.883896        -0.614566
 O         1.803005        -0.187595        -1.286405
 H        -0.283564         1.272731        -0.331023
 H        -0.560210        -0.355857        -0.115110
 H        -0.349378         0.462366         1.244424
 H         2.179439        -0.527282         2.109701
 H         1.443677        -1.927535         1.222993
 H         4.207736        -0.390030         2.391653
 H         5.348021        -1.361482         1.319258
 H         5.744365         1.073960         0.695131
 H         4.300806         1.990338        -1.033859
 H         2.223208         1.902939        -1.075396
