19
Iteration:  3596charge 0 multiplicity 1
 C         0.123668         0.290223         0.164093
 C         1.651050         0.045806         0.118203
 C         2.068510        -1.051943         1.043365
 O         3.341020        -1.590788         1.119370
 C         4.455100        -0.688804         1.230529
 C         4.663780         0.355289         0.162961
 C         3.772713         1.286622        -0.300057
 C         2.382417         1.111019        -0.533640
 O         1.896904         0.031331        -1.374142
 H        -0.201386         0.664126        -0.904169
 H        -0.585449        -0.466618         0.377133
 H        -0.210043         0.923479         1.006124
 H         1.891165        -0.570585         2.072726
 H         1.430644        -1.894267         0.929843
 H         4.242958         0.129913         2.128966
 H         5.260208        -1.205541         1.580590
 H         5.779460         0.579306         0.000983
 H         4.180434         2.057420        -0.918820
 H         1.945770         2.028692        -0.779279
