19
Iteration:  1943
 C         0.114137         0.530174         0.196044
 C         1.531115         0.004154         0.032937
 C         2.070341        -0.707351         1.287189
 O         3.293238        -1.472381         1.058956
 C         4.504907        -0.614787         1.163870
 C         4.601399         0.583551         0.382938
 C         3.791186         1.242681        -0.450494
 C         2.425250         0.797505        -0.865462
 O         1.977994        -0.550652        -1.240447
 H        -0.191188         1.217411         1.056303
 H        -0.079947         1.093470        -0.699136
 H        -0.563646        -0.307094         0.281469
 H         2.253742         0.008055         2.156799
 H         1.273628        -1.495965         1.554492
 H         4.688470        -0.417829         2.224434
 H         5.335031        -1.247978         0.896886
 H         5.457532         1.053679         0.787701
 H         4.145850         2.286534        -0.778144
 H         1.825794         1.602481        -1.500357
