19
Iteration:  2250
 C         0.076365         0.355182         0.245661
 C         1.547574         0.034400         0.147764
 C         1.995130        -1.032819         1.142984
 O         3.362849        -1.281115         0.941998
 C         4.369136        -0.307725         1.474232
 C         4.729315         0.433065         0.214735
 C         3.940837         0.907179        -0.692595
 C         2.433386         0.975549        -0.677099
 O         1.888352        -0.268343        -1.180948
 H        -0.451173         0.617311         1.181589
 H        -0.022903         1.225347        -0.430520
 H        -0.419154        -0.692332        -0.159242
 H         1.720085        -0.740053         2.238216
 H         1.478385        -2.011916         0.928584
 H         3.894214         0.455460         2.287535
 H         5.194912        -0.768549         1.991881
 H         5.875174         0.428789         0.058292
 H         4.424888         1.331388        -1.620960
 H         2.132356         2.043713        -0.877669
