19
Iteration:  3383charge 0 multiplicity 1
 C        -0.113013         0.239207         0.100730
 C         1.426608         0.107886         0.093838
 C         2.089337        -0.892314         1.144881
 O         3.314750        -1.498372         0.863027
 C         4.556632        -0.723955         1.150772
 C         4.816650         0.439946         0.322265
 C         3.938093         1.184012        -0.294002
 C         2.397187         1.044433        -0.537684
 O         1.907448        -0.082475        -1.227859
 H        -0.433196         0.140932        -0.913415
 H        -0.581246        -0.549027         0.732685
 H        -0.342252         1.177813         0.663569
 H         2.224534        -0.376838         2.154202
 H         1.377690        -1.724320         1.192651
 H         4.491132        -0.368331         2.135478
 H         5.337718        -1.447375         1.188367
 H         5.853358         0.928364         0.533615
 H         4.251862         2.145440        -0.675961
 H         1.872212         2.051010        -0.906218
