19
Iteration:  3477
 C         0.208554         0.533924         0.337895
 C         1.582550        -0.033884         0.048885
 C         2.052669        -1.020041         1.065414
 O         3.299485        -1.566606         0.920494
 C         4.535371        -0.701750         1.196932
 C         4.594635         0.640667         0.527040
 C         3.782998         1.242478        -0.391329
 C         2.328107         0.975534        -0.733136
 O         1.932373        -0.235041        -1.363343
 H         0.027829         1.504392        -0.274007
 H        -0.741615        -0.106536         0.063224
 H         0.150015         0.576299         1.448511
 H         1.913167        -0.549776         1.998862
 H         1.325328        -1.869874         0.976772
 H         4.685566        -0.691599         2.283725
 H         5.348093        -1.442780         0.895904
 H         5.516670         1.196017         0.827504
 H         4.141546         2.202281        -0.681195
 H         1.848959         1.831495        -1.040787
