19
Iteration:  4424charge 0 multiplicity 1
 C        -0.008260         0.233050         0.217652
 C         1.487210         0.078345         0.001998
 C         2.044038        -0.995951         1.056105
 O         3.335087        -1.528374         0.867375
 C         4.390153        -0.733800         1.254088
 C         4.806426         0.403904         0.380949
 C         3.895209         1.208915        -0.283893
 C         2.456680         1.110112        -0.460904
 O         1.962437         0.090138        -1.370524
 H        -0.406138        -0.693094         0.827688
 H        -0.491713         1.187785         0.588395
 H        -0.517907        -0.074036        -0.754370
 H         1.905916        -0.461657         2.010282
 H         1.411037        -1.769545         0.848314
 H         4.144720        -0.413822         2.354124
 H         5.221820        -1.544112         1.511658
 H         5.846409         0.549657         0.181067
 H         4.195515         2.013943        -0.904489
 H         2.023576         2.046596        -0.568948
