19
Iteration:  1816
 C         0.077044         0.451699         0.166594
 C         1.535408        -0.012955         0.067268
 C         2.018405        -0.952265         1.204589
 O         3.426905        -1.404441         1.199604
 C         4.376648        -0.421217         1.372393
 C         4.711602         0.427088         0.176463
 C         3.867411         1.059041        -0.641314
 C         2.389794         0.950822        -0.655299
 O         1.915688        -0.273071        -1.305879
 H        -0.185176         0.884905         1.183751
 H        -0.216322         1.177606        -0.597789
 H        -0.535066        -0.405573        -0.130654
 H         1.744382        -0.480754         2.205526
 H         1.513687        -1.922444         1.201674
 H         4.052604         0.137164         2.227332
 H         5.363165        -0.905177         1.714438
 H         5.746859         0.366033        -0.031140
 H         4.401322         1.577746        -1.421687
 H         1.866127         1.855247        -0.893738
