19
Iteration:  3127charge 0 multiplicity 1
 C         0.217998         0.446248         0.490113
 C         1.597803         0.043132         0.044026
 C         1.993014        -1.175182         0.910029
 O         3.393560        -1.428673         0.674140
 C         4.265572        -0.503924         1.422232
 C         4.701181         0.604641         0.571293
 C         3.951554         1.074307        -0.490938
 C         2.501673         0.911575        -0.733149
 O         1.760517        -0.183208        -1.300766
 H        -0.205676         1.290687        -0.205088
 H        -0.495398        -0.412787         0.393592
 H         0.161411         0.829650         1.513627
 H         1.780372        -0.887055         2.062991
 H         1.438786        -2.088222         0.720501
 H         3.897841        -0.051106         2.298316
 H         5.043438        -1.208400         1.723593
 H         5.625330         1.079965         0.851268
 H         4.495513         1.963965        -0.952416
 H         1.993719         1.934736        -0.920009
