19
Iteration:  3599charge 0 multiplicity 1
 C         0.128192         0.310920         0.161480
 C         1.652192         0.040856         0.091874
 C         2.069468        -1.034681         1.052874
 O         3.355449        -1.616171         1.118933
 C         4.460665        -0.678793         1.242941
 C         4.642737         0.365646         0.168199
 C         3.793263         1.272710        -0.313566
 C         2.366614         1.136090        -0.530750
 O         1.902580         0.027395        -1.375067
 H        -0.235251         0.667468        -0.834157
 H        -0.581596        -0.711089         0.502410
 H        -0.248535         0.958150         0.988027
 H         1.789611        -0.542953         2.130318
 H         1.340866        -1.942191         0.885854
 H         4.255763         0.018086         2.143345
 H         5.281691        -1.281048         1.621260
 H         5.743451         0.591124        -0.004775
 H         4.182152         2.108591        -0.989891
 H         1.935411         2.076133        -0.778894
