19
Iteration:  3949
 C         0.037697         0.387106         0.154408
 C         1.511868         0.080020         0.103886
 C         1.992489        -1.037545         1.166840
 O         3.317112        -1.530790         0.872235
 C         4.445195        -0.677024         1.181185
 C         4.713351         0.504988         0.306172
 C         3.809337         1.256906        -0.350462
 C         2.403104         1.080437        -0.563414
 O         2.070083        -0.181331        -1.218002
 H        -0.324257         0.889844        -0.783430
 H        -0.469234        -0.527747         0.185161
 H        -0.235047         0.899022         1.103278
 H         1.836562        -0.689549         2.152689
 H         1.370658        -1.826042         0.869296
 H         4.413345        -0.331554         2.333300
 H         5.297502        -1.445819         1.183669
 H         5.782203         0.784751         0.423516
 H         4.324134         2.016137        -1.004947
 H         1.801680         1.960763        -0.872478
