19
Iteration:  4236charge 0 multiplicity 1
 C         0.106577         0.303038         0.212443
 C         1.540890         0.038994         0.045036
 C         1.995044        -0.977814         1.045766
 O         3.286704        -1.538153         0.916774
 C         4.396983        -0.683913         1.269519
 C         4.735422         0.493084         0.340991
 C         3.855069         1.229300        -0.328999
 C         2.411020         1.101421        -0.521222
 O         1.986914        -0.088912        -1.304422
 H        -0.443992        -0.586030        -0.088155
 H        -0.108257         0.617737         1.297103
 H        -0.261639         1.004321        -0.533130
 H         1.790432        -0.683409         2.133071
 H         1.399043        -1.819255         0.802603
 H         4.462827        -0.457850         2.319597
 H         5.363213        -1.261800         1.182876
 H         5.790911         0.673842         0.252308
 H         4.148117         2.035825        -1.058358
 H         1.934908         1.938007        -0.826639
