19
Iteration:  2050
 C         0.101157         0.235712         0.234178
 C         1.532985        -0.003277         0.001315
 C         2.019477        -0.739312         1.283572
 O         3.310104        -1.429922         1.208505
 C         4.496907        -0.635676         1.269771
 C         4.703159         0.473177         0.305570
 C         3.868306         1.092550        -0.542667
 C         2.358735         1.009529        -0.736650
 O         1.929845        -0.206674        -1.421239
 H        -0.141288         0.710730         1.110859
 H        -0.324382         0.743276        -0.630133
 H        -0.520700        -0.789920         0.047202
 H         2.205275         0.094567         1.941878
 H         1.160697        -1.265714         1.729949
 H         4.495158        -0.134083         2.311906
 H         5.315469        -1.323091         1.243293
 H         5.744647         0.692399         0.161069
 H         4.344396         1.744823        -1.320484
 H         1.857406         1.990593        -0.930260
