19
Iteration:  4432charge 0 multiplicity 1
 C        -0.051850         0.295988         0.201499
 C         1.505788         0.055547         0.045982
 C         2.029180        -1.069943         0.989873
 O         3.363352        -1.553581         0.831306
 C         4.354448        -0.723590         1.286638
 C         4.758692         0.442496         0.370194
 C         3.904939         1.202665        -0.325254
 C         2.438152         1.141943        -0.434644
 O         2.026551         0.021789        -1.319169
 H        -0.472335        -0.333477         0.966386
 H        -0.369176         1.317303         0.604186
 H        -0.527396         0.190010        -0.732424
 H         1.863372        -0.655895         2.010748
 H         1.387375        -1.984725         1.058709
 H         4.236489        -0.299900         2.244607
 H         5.253156        -1.330794         1.387559
 H         5.781314         0.750677         0.281136
 H         4.299464         2.017250        -0.963362
 H         1.988798         2.173359        -0.628642
