19
Iteration:  1110charge 0 multiplicity 1
 C        -0.067364         0.275541         0.040001
 C         1.439773         0.043359        -0.011046
 C         2.137751        -0.572709         1.252650
 O         3.348881        -1.325890         1.150096
 C         4.577837        -0.729686         1.281545
 C         4.765018         0.527968         0.429031
 C         3.917571         0.991540        -0.472802
 C         2.345033         0.909357        -0.725766
 O         1.825616        -0.332910        -1.315134
 H        -0.352905         0.873330         0.848333
 H        -0.488285         0.791463        -0.835061
 H        -0.605360        -0.655634         0.094638
 H         2.476609         0.284892         1.762530
 H         1.502237        -1.305029         1.829718
 H         4.953721        -0.435153         2.321540
 H         5.335851        -1.376287         0.930142
 H         5.796312         0.836480         0.534243
 H         4.350638         1.944680        -1.049351
 H         1.791025         1.706323        -1.272639
