19
Iteration:  4155charge 0 multiplicity 1
 C         0.040069         0.321583         0.339647
 C         1.516582         0.034052        -0.001774
 C         2.002235        -1.053758         0.969530
 O         3.368485        -1.451945         0.942765
 C         4.400984        -0.624209         1.372295
 C         4.734465         0.484446         0.416692
 C         3.930579         1.078614        -0.461420
 C         2.410925         1.056638        -0.583412
 O         1.931375        -0.044013        -1.368539
 H        -0.484164         0.230073        -0.647609
 H        -0.432790        -0.414450         0.936087
 H        -0.075027         1.310227         0.839155
 H         1.793957        -0.581080         1.984202
 H         1.428664        -1.979160         0.890582
 H         4.089883        -0.201886         2.301101
 H         5.254184        -1.280891         1.464329
 H         5.785069         0.958954         0.397561
 H         4.351716         1.755019        -1.202514
 H         2.009087         2.047055        -0.733739
