19
Iteration:  4521charge 0 multiplicity 1
 C         0.177389         0.395486         0.469312
 C         1.548717         0.041420        -0.026469
 C         2.066513        -0.984586         0.942207
 O         3.435236        -1.448470         0.787116
 C         4.340246        -0.681972         1.414583
 C         4.592017         0.589836         0.664969
 C         3.896949         1.028540        -0.382935
 C         2.486468         0.930910        -0.751536
 O         1.782587        -0.069952        -1.494512
 H        -0.419868        -0.493497         0.837205
 H         0.288820         1.058608         1.349901
 H        -0.294656         0.972472        -0.359014
 H         1.891684        -0.590208         1.998574
 H         1.455613        -1.845712         0.566141
 H         4.113638        -0.617538         2.516404
 H         5.268564        -1.309845         1.551681
 H         5.564550         1.060581         0.722353
 H         4.330927         1.836173        -0.879999
 H         1.960082         1.864032        -0.923286
