19
Iteration:  1686charge 0 multiplicity 1
 C         0.165021         0.483238         0.296874
 C         1.574637         0.025894         0.095829
 C         1.975605        -0.972435         1.105822
 O         3.358431        -1.371522         1.043120
 C         4.310899        -0.493487         1.409017
 C         4.666276         0.534330         0.312488
 C         3.869794         1.082377        -0.661598
 C         2.419303         0.874886        -0.753867
 O         1.966146        -0.354953        -1.265211
 H         0.183135         1.438121         0.826465
 H        -0.328540         0.593930        -0.629380
 H        -0.179195        -0.234060         1.007256
 H         1.844128        -0.614867         2.122174
 H         1.450727        -1.946632         1.000291
 H         4.108538         0.101101         2.366754
 H         5.202392        -1.114785         1.592062
 H         5.670178         0.840403         0.226984
 H         4.269076         1.840011        -1.423805
 H         1.754878         1.770401        -1.149579
