19
Iteration:  3015charge 0 multiplicity 1
 C        -0.031845         0.225162         0.241861
 C         1.455469         0.071149         0.063543
 C         2.038012        -0.936364         1.063647
 O         3.335103        -1.363650         0.756773
 C         4.403331        -0.649459         1.310885
 C         4.833250         0.409440         0.321584
 C         3.920608         1.101017        -0.357708
 C         2.417664         1.040616        -0.448598
 O         1.941717        -0.059629        -1.262440
 H        -0.322264         0.465619        -0.761176
 H        -0.378318        -0.766421         0.480783
 H        -0.463523         0.902438         0.918369
 H         2.061534        -0.515788         2.067253
 H         1.382361        -1.782065         1.176356
 H         4.154732        -0.123111         2.304880
 H         5.283609        -1.310954         1.591452
 H         5.926969         0.422352         0.028175
 H         4.248576         1.816455        -1.042492
 H         2.184880         2.008342        -0.978085
