19
Iteration:  2027
 C        -0.035786         0.180551         0.138255
 C         1.444334         0.064582        -0.031399
 C         2.194955        -0.638408         1.256054
 O         3.340805        -1.348166         1.191422
 C         4.528865        -0.719218         1.327589
 C         4.661893         0.406093         0.271333
 C         3.819756         1.036703        -0.531180
 C         2.373477         1.032929        -0.667306
 O         1.967957        -0.198773        -1.336022
 H        -0.229280         0.588023         1.086526
 H        -0.548795         0.746552        -0.676173
 H        -0.583710        -0.879185        -0.138387
 H         2.277006         0.126905         2.037096
 H         1.353792        -1.282532         1.600394
 H         4.640881        -0.319881         2.442554
 H         5.333746        -1.475279         1.214636
 H         5.757085         0.628808         0.042287
 H         4.156501         1.763988        -1.329915
 H         1.998121         1.970824        -1.078668
