19
Iteration:  1080
 C         0.079606         0.292314         0.052517
 C         1.546116         0.101647         0.114371
 C         2.001409        -0.644783         1.353312
 O         3.206142        -1.377943         1.202432
 C         4.404252        -0.680185         1.080429
 C         4.716977         0.446632         0.232877
 C         3.835238         1.248905        -0.481319
 C         2.391233         0.915555        -0.777978
 O         2.126472        -0.440288        -1.201794
 H        -0.267837         0.598955         1.056625
 H        -0.312665         0.946981        -0.648350
 H        -0.414873        -0.702911        -0.011002
 H         2.117555        -0.012137         2.279194
 H         1.196369        -1.345835         1.668438
 H         4.634704        -0.333437         2.160601
 H         5.207617        -1.427509         0.974474
 H         5.808945         0.672261         0.188459
 H         4.046589         2.251019        -1.110477
 H         1.911232         1.751517        -1.409252
