19
Iteration:  3168charge 0 multiplicity 1
 C         0.014293         0.308201         0.291478
 C         1.463293         0.005022         0.068965
 C         2.022035        -1.139600         0.961974
 O         3.414667        -1.416974         0.909966
 C         4.374294        -0.542098         1.421247
 C         4.806245         0.405429         0.308016
 C         3.912219         1.085196        -0.485603
 C         2.435635         1.086174        -0.459092
 O         1.886432         0.013923        -1.338600
 H        -0.395509         0.901353        -0.492869
 H        -0.539084        -0.552556         0.395241
 H        -0.001224         0.814077         1.184073
 H         1.806005        -0.864247         1.925615
 H         1.491701        -2.087759         0.700258
 H         3.893824         0.032550         2.305134
 H         5.301180        -1.124261         1.793099
 H         5.888073         0.603838         0.063977
 H         4.262128         1.671102        -1.362724
 H         2.087053         2.036046        -0.897710
