19
Iteration:  3914
 C         0.044228         0.524808         0.225862
 C         1.517871         0.004075         0.084782
 C         2.063751        -0.897131         1.158489
 O         3.331003        -1.402322         0.601832
 C         4.445403        -0.697816         1.163694
 C         4.732497         0.608675         0.554832
 C         3.877117         1.197898        -0.221296
 C         2.441059         0.857846        -0.655574
 O         1.902800        -0.399677        -1.272187
 H        -0.376827         1.383941        -0.441132
 H        -0.603361        -0.380609         0.174547
 H        -0.134247         0.943689         1.226868
 H         2.198939        -0.392769         2.070923
 H         1.488703        -1.703637         1.383158
 H         4.203272        -0.432658         2.295584
 H         5.377264        -1.309231         1.148454
 H         5.518337         1.196426         0.912028
 H         4.137545         2.122501        -0.753632
 H         1.933690         1.687513        -0.994345
