19
Iteration:   118
 C         0.005794         0.168674         0.179946
 C         1.487188         0.179939         0.064419
 C         2.088260        -0.458335         1.323960
 O         3.156360        -1.336143         0.899298
 C         4.455821        -0.755524         1.132773
 C         4.845751         0.589160         0.453200
 C         3.977710         1.174228        -0.469801
 C         2.440466         0.839611        -0.800135
 O         1.882447        -0.475948        -1.157791
 H        -0.512830         0.395275         1.241248
 H        -0.572093         0.674123        -0.509945
 H        -0.222326        -0.990527         0.023128
 H         2.489085         0.321278         1.943192
 H         1.337756        -1.063580         1.873498
 H         4.632353        -0.669406         2.220708
 H         5.190671        -1.658985         0.784139
 H         5.908287         0.818203         0.465968
 H         4.407749         2.082378        -0.985480
 H         2.046156         1.705498        -1.490287
