19
Iteration:  1765charge 0 multiplicity 1
 C         0.015341         0.351379         0.482334
 C         1.538060         0.073160         0.044136
 C         2.058612        -0.934871         1.054722
 O         3.337517        -1.399076         1.037514
 C         4.374461        -0.296025         1.543786
 C         4.704224         0.566670         0.333583
 C         3.961751         0.882127        -0.701981
 C         2.538769         0.850272        -0.786673
 O         1.836244        -0.244159        -1.396258
 H         0.037157         0.495731         1.479833
 H        -0.374164         1.224858        -0.077544
 H        -0.707933        -0.436507         0.040287
 H         1.867708        -0.521359         2.026539
 H         1.362355        -1.870092         1.161991
 H         3.899033         0.128396         2.528451
 H         5.199581        -0.903233         1.647330
 H         5.833428         0.757217         0.271079
 H         4.550679         1.168691        -1.500613
 H         2.202822         1.810181        -1.439224
