19
Iteration:  3706charge 0 multiplicity 1
 C         0.187996         0.572716         0.384171
 C         1.540785        -0.026015         0.038437
 C         2.007123        -1.122310         1.012760
 O         3.396644        -1.497476         0.798936
 C         4.420711        -0.625810         1.252226
 C         4.551171         0.688674         0.588971
 C         3.876720         1.223635        -0.427105
 C         2.419498         0.882041        -0.707441
 O         1.869358        -0.288239        -1.305356
 H         0.265217         1.716629        -0.103030
 H        -0.536621         0.076323        -0.153032
 H         0.108069         0.604637         1.535259
 H         1.836003        -0.826527         2.058566
 H         1.401144        -1.981916         0.827953
 H         4.421641        -0.469605         2.317915
 H         5.285924        -1.278234         0.866271
 H         5.577432         1.086050         1.031205
 H         4.304458         2.170519        -0.891494
 H         1.974096         1.823414        -1.058269
