19
Iteration:  3307
 C         0.139892         0.591154         0.347221
 C         1.538244         0.009110         0.020352
 C         2.096392        -0.999486         1.058830
 O         3.389682        -1.519811         0.716380
 C         4.464476        -0.696386         1.221092
 C         4.621220         0.652604         0.597868
 C         3.754372         1.229388        -0.270653
 C         2.437894         0.938752        -0.775394
 O         1.871272        -0.350905        -1.268627
 H        -0.196217         1.383969        -0.355060
 H        -0.628969        -0.300084         0.286987
 H         0.247207         1.017334         1.470002
 H         2.050460        -0.517261         2.022041
 H         1.501235        -1.848427         0.916215
 H         4.263934        -0.797264         2.404502
 H         5.332830        -1.234888         0.983989
 H         5.553189         1.276634         0.849085
 H         4.137375         2.107170        -0.717309
 H         1.878675         1.608011        -1.384423
