19
Iteration:  4582
 C         0.067470         0.317431         0.147434
 C         1.582485        -0.017446         0.129776
 C         1.875140        -1.096999         1.061882
 O         3.345694        -1.463631         0.866083
 C         4.340914        -0.536784         1.291652
 C         4.729842         0.371848         0.170311
 C         3.873406         1.209904        -0.399570
 C         2.388730         1.140793        -0.406290
 O         2.123708        -0.111369        -1.175510
 H        -0.507358        -0.020463        -0.717389
 H        -0.457087         0.194824         1.160773
 H        -0.107311         1.376467         0.043529
 H         1.601571        -0.926719         2.130295
 H         1.383994        -2.067866         0.734239
 H         3.981758        -0.004464         2.096789
 H         5.240388        -1.124789         1.409425
 H         5.758915         0.528290         0.106813
 H         4.322515         1.915909        -1.158716
 H         1.931276         2.138423        -0.751778
