19
Iteration:  2321
 C         0.181969         0.543245         0.285767
 C         1.636047        -0.007452         0.000032
 C         2.039034        -0.846853         1.169851
 O         3.371667        -1.487686         1.058751
 C         4.437304        -0.553456         1.288326
 C         4.574497         0.611516         0.425157
 C         3.775753         1.147846        -0.559582
 C         2.414559         0.870724        -0.827740
 O         1.891150        -0.472322        -1.275987
 H         0.014146         1.233087         1.216233
 H        -0.223295         1.241232        -0.489907
 H        -0.478698        -0.229340         0.430060
 H         1.920811        -0.320262         2.165274
 H         1.312307        -1.672115         1.165398
 H         4.360842        -0.136736         2.398463
 H         5.421925        -1.129610         1.302815
 H         5.526396         1.063254         0.446792
 H         4.299955         1.869213        -1.169774
 H         1.876240         1.712012        -1.332067
