19
Iteration:  4460
 C         0.158629         0.551674         0.224615
 C         1.581710         0.026026         0.161506
 C         1.985481        -1.213198         0.942914
 O         3.365934        -1.560588         0.715908
 C         4.267404        -0.696400         1.277957
 C         4.703217         0.613807         0.416635
 C         3.838884         1.305535        -0.292899
 C         2.434587         1.019128        -0.512484
 O         1.983072        -0.189396        -1.227083
 H        -0.425222         0.061550         1.039029
 H         0.085130         1.601694         0.421139
 H        -0.296785         0.403610        -0.810474
 H         1.727843        -1.260491         2.020867
 H         1.504571        -2.169268         0.665168
 H         3.933949        -0.193744         2.286939
 H         5.225327        -1.227995         1.383566
 H         5.809211         0.857911         0.296014
 H         4.219239         2.165014        -0.910586
 H         1.942776         1.953307        -0.793137
