19
Iteration:  2559charge 0 multiplicity 1
 C         0.130555         0.432350         0.330961
 C         1.553424         0.017844        -0.019954
 C         2.039056        -0.889301         1.132535
 O         3.386499        -1.455669         1.052722
 C         4.427491        -0.686782         1.258901
 C         4.606044         0.527128         0.417868
 C         3.825646         1.185608        -0.449666
 C         2.337361         1.014079        -0.792274
 O         1.959279        -0.306503        -1.364258
 H        -0.302102        -0.462765         0.743297
 H         0.184896         1.236884         1.031793
 H        -0.406505         0.735987        -0.480018
 H         1.976945        -0.407049         2.112908
 H         1.504345        -1.865328         1.196513
 H         4.447558        -0.354453         2.265462
 H         5.182547        -1.493136         1.320444
 H         5.531629         0.969645         0.513308
 H         4.244180         2.145585        -0.824725
 H         2.013596         1.946960        -1.399479
