19
Iteration:  1751
 C         0.137802         0.461023         0.368437
 C         1.531797         0.018477         0.040515
 C         2.012526        -0.975162         1.086818
 O         3.415776        -1.328491         1.001342
 C         4.281846        -0.389621         1.464701
 C         4.769813         0.604924         0.381088
 C         3.945582         0.906209        -0.701978
 C         2.435605         0.859086        -0.761184
 O         1.825635        -0.340232        -1.301065
 H        -0.009927         0.657059         1.461493
 H        -0.259444         1.342690        -0.099254
 H        -0.504399        -0.392680         0.152228
 H         1.740392        -0.579620         2.079541
 H         1.473465        -1.878361         0.806314
 H         3.911320         0.142927         2.379851
 H         5.169798        -0.899781         1.944912
 H         5.807904         0.742881         0.272725
 H         4.394164         1.356136        -1.643722
 H         1.982153         1.859865        -1.062372
