19
Iteration:  1312charge 0 multiplicity 1
 C         0.134926         0.607549         0.093935
 C         1.549953        -0.057275         0.114200
 C         2.002551        -1.092151         1.189209
 O         3.425803        -1.445361         1.185566
 C         4.311245        -0.382888         1.345984
 C         4.721742         0.538127         0.128203
 C         3.863101         1.102665        -0.623236
 C         2.407074         0.923474        -0.632750
 O         1.929789        -0.380167        -1.221457
 H        -0.119426         0.862533         1.164526
 H         0.070451         1.533556        -0.574584
 H        -0.545372        -0.052612        -0.342924
 H         1.638923        -0.719862         2.212879
 H         1.344376        -2.042203         1.159749
 H         3.941146         0.221092         2.139460
 H         5.300506        -0.857940         1.695163
 H         5.783198         0.633166         0.125435
 H         4.206537         1.611830        -1.472766
 H         1.754743         1.808779        -0.870977
