19
Iteration:  1627
 C         0.028659         0.350400         0.155088
 C         1.503979         0.020484         0.008571
 C         2.102715        -0.722175         1.320166
 O         3.376502        -1.345726         1.043877
 C         4.469458        -0.624145         1.346642
 C         4.763885         0.489851         0.337947
 C         3.821853         1.032930        -0.485285
 C         2.381994         0.907801        -0.734842
 O         1.868659        -0.300855        -1.349136
 H        -0.249212         1.360098         0.540228
 H        -0.510909         0.128743        -0.823241
 H        -0.635270        -0.366104         0.655367
 H         2.129545         0.091956         2.066462
 H         1.425140        -1.478054         1.600625
 H         4.549486        -0.332951         2.466197
 H         5.435398        -1.342433         1.294248
 H         5.825839         0.817447         0.132001
 H         4.255080         1.672778        -1.289834
 H         1.926363         1.803144        -1.095265
