19
Iteration:   461
 C         0.144955         0.452511         0.371900
 C         1.539541         0.049863        -0.023248
 C         2.052868        -0.864489         1.161852
 O         3.339746        -1.480021         1.253956
 C         4.491060        -0.552978         1.375101
 C         4.625166         0.551178         0.348396
 C         3.839617         1.125177        -0.675077
 C         2.389785         0.911981        -0.906007
 O         1.896366        -0.397018        -1.399975
 H         0.201706         1.114798         1.267732
 H        -0.409639         1.118643        -0.430454
 H        -0.540663        -0.346309         0.623707
 H         1.888811        -0.370169         2.133171
 H         1.308865        -1.636908         1.341265
 H         4.498984        -0.164062         2.358078
 H         5.504072        -1.147140         1.303459
 H         5.564241         1.119120         0.558411
 H         4.288139         1.998350        -1.182698
 H         1.866094         1.727579        -1.433924
