19
Iteration:   397charge 0 multiplicity 1
 C        -0.132279         0.388718         0.225789
 C         1.408454         0.037619         0.131419
 C         2.000655        -0.897551         1.126019
 O         3.368924        -1.267981         0.965234
 C         4.472952        -0.371652         1.337158
 C         4.898375         0.465475         0.253753
 C         3.973893         1.008218        -0.613340
 C         2.434788         0.840787        -0.616220
 O         1.904538        -0.390961        -1.162807
 H        -0.378119         0.976953         1.145551
 H        -0.327787         1.256087        -0.500523
 H        -0.829405        -0.425482         0.073861
 H         1.750788        -0.421833         2.185612
 H         1.432416        -1.806097         1.058523
 H         4.359117         0.248629         2.321230
 H         5.314003        -1.180437         1.621475
 H         5.952900         0.622808         0.051877
 H         4.523048         1.386655        -1.674730
 H         2.092410         1.697327        -1.209624
