19
Iteration:  4581charge 0 multiplicity 1
 C         0.081221         0.323614         0.160398
 C         1.575711        -0.011944         0.122161
 C         1.879814        -1.104723         1.053467
 O         3.349365        -1.468643         0.868730
 C         4.344105        -0.527784         1.295642
 C         4.725664         0.373380         0.173760
 C         3.876658         1.202039        -0.395450
 C         2.376563         1.136151        -0.415714
 O         2.119502        -0.107648        -1.184589
 H        -0.520788        -0.061568        -0.725264
 H        -0.476369         0.213866         1.155785
 H        -0.126220         1.419717         0.036601
 H         1.585268        -0.939591         2.146167
 H         1.353328        -2.035029         0.766901
 H         3.998522        -0.023773         2.140338
 H         5.272200        -1.177296         1.429565
 H         5.783180         0.581765         0.121125
 H         4.337743         1.923454        -1.161274
 H         1.929443         2.104897        -0.742776
