19
Iteration:   246
 C         0.095414         0.298111         0.215786
 C         1.493952         0.066583         0.093920
 C         2.140915        -0.643091         1.208248
 O         3.311863        -1.254841         0.822015
 C         4.458440        -0.636064         1.328495
 C         4.790927         0.451651         0.333545
 C         3.895130         1.049602        -0.422164
 C         2.399919         0.836282        -0.774042
 O         1.797185        -0.410285        -1.213560
 H        -0.205504         1.158246         0.871871
 H        -0.372577         0.414361        -0.741200
 H        -0.449714        -0.576005         0.668473
 H         2.208504         0.151824         2.055435
 H         1.396504        -1.400934         1.662513
 H         4.174292        -0.074730         2.299035
 H         5.164596        -1.331833         1.631818
 H         5.784228         0.977722         0.489181
 H         4.211571         1.974207        -1.084653
 H         1.991259         1.738317        -1.359073
