19
Iteration:   460charge 0 multiplicity 1
 C         0.147863         0.457276         0.370525
 C         1.549573         0.052474        -0.019424
 C         2.058297        -0.866399         1.164107
 O         3.338824        -1.490752         1.260584
 C         4.481756        -0.552620         1.370561
 C         4.621301         0.548217         0.349740
 C         3.841075         1.140436        -0.683985
 C         2.391176         0.915336        -0.910899
 O         1.892497        -0.399227        -1.397438
 H         0.223384         1.065573         1.275452
 H        -0.418141         1.121915        -0.448561
 H        -0.505135        -0.359854         0.613641
 H         1.909294        -0.351409         2.094572
 H         1.296687        -1.653013         1.345020
 H         4.473320        -0.129720         2.367608
 H         5.463846        -1.122424         1.297757
 H         5.591916         1.112648         0.555273
 H         4.260379         1.957781        -1.137207
 H         1.855162         1.721893        -1.423817
