19
Iteration:  4126
 C         0.159422         0.408890         0.417281
 C         1.558539         0.074907        -0.044697
 C         2.086395        -1.103596         0.932869
 O         3.435862        -1.527709         0.958425
 C         4.373865        -0.638751         1.451931
 C         4.645504         0.553600         0.558132
 C         3.941836         1.168171        -0.441314
 C         2.465233         0.970089        -0.806803
 O         1.679488        -0.099370        -1.453076
 H        -0.288122         0.889642        -0.426621
 H        -0.434041        -0.516956         0.669255
 H         0.171999         1.201762         1.241845
 H         1.827027        -0.616430         1.915176
 H         1.428599        -1.948141         0.902623
 H         4.112664        -0.384157         2.587314
 H         5.328223        -1.305645         1.513285
 H         5.616261         1.094396         0.791314
 H         4.463878         1.917772        -0.989218
 H         2.099742         1.973048        -1.071260
