19
Iteration:  2840charge 0 multiplicity 1
 C         0.050089         0.324049         0.147867
 C         1.551685         0.059767         0.027918
 C         2.027557        -0.895263         1.165134
 O         3.211024        -1.607800         1.020328
 C         4.489625        -0.794828         1.091614
 C         4.679272         0.557522         0.277258
 C         3.796335         1.360399        -0.295182
 C         2.381590         1.094867        -0.575025
 O         2.125779        -0.209693        -1.231817
 H        -0.545322         0.619567        -0.790999
 H        -0.390127        -0.677385         0.586329
 H        -0.172414         1.152530         0.953698
 H         1.909548        -0.375891         2.223435
 H         1.383839        -1.755300         1.026514
 H         4.732728        -0.621190         2.220084
 H         5.216067        -1.445734         0.614145
 H         5.692291         0.830999         0.179783
 H         4.168428         2.329877        -0.713707
 H         1.850357         2.014793        -0.945626
