19
Iteration:  4875
 C         0.205363         0.475520         0.301922
 C         1.578013         0.007764         0.109794
 C         2.066210        -1.125382         0.960704
 O         3.367433        -1.470700         0.631720
 C         4.309569        -0.658071         1.313468
 C         4.699987         0.608424         0.624698
 C         3.827320         1.190199        -0.281678
 C         2.416318         0.912530        -0.616830
 O         1.884587        -0.142982        -1.351442
 H         0.274337         1.545175         0.724812
 H        -0.389495         0.694251        -0.617550
 H        -0.479724        -0.103850         0.893175
 H         1.912838        -0.914516         1.985892
 H         1.410965        -1.954864         0.576702
 H         4.015765        -0.463483         2.376511
 H         5.125922        -1.406370         1.381133
 H         5.633694         1.070316         0.874458
 H         4.268807         2.095017        -0.697687
 H         1.909158         1.796962        -0.898329
