19
Iteration:  3459
 C         0.131370         0.443569         0.296785
 C         1.581471         0.071691         0.013231
 C         2.033940        -0.976019         1.106164
 O         3.378419        -1.622247         0.949356
 C         4.347560        -0.726060         1.100555
 C         4.614886         0.562233         0.400387
 C         3.835318         1.383532        -0.304263
 C         2.464230         0.984213        -0.660373
 O         1.914464        -0.245525        -1.300175
 H        -0.145066         1.119433        -0.410427
 H        -0.403567        -0.472472         0.193511
 H        -0.011061         0.812423         1.272967
 H         1.919652        -0.555868         2.173931
 H         1.308443        -1.839095         1.030013
 H         4.466437        -0.442538         2.241112
 H         5.376039        -1.302600         0.966603
 H         5.656138         0.882975         0.678863
 H         4.094570         2.350710        -0.758032
 H         1.892236         1.880710        -1.168615
