19
Iteration:  2991
 C        -0.034756         0.296890         0.109439
 C         1.509812         0.041304         0.096605
 C         2.019455        -0.958878         1.149311
 O         3.343641        -1.478897         0.897047
 C         4.460872        -0.686861         1.228217
 C         4.769016         0.371994         0.238950
 C         3.906750         1.262789        -0.370040
 C         2.365693         1.097511        -0.453011
 O         1.963363        -0.107000        -1.230592
 H        -0.236358         0.715199        -0.760843
 H        -0.452846        -0.649148         0.108354
 H        -0.472490         0.824704         0.876238
 H         1.926964        -0.544903         2.175851
 H         1.344931        -1.838085         1.167947
 H         4.450936        -0.153852         2.188528
 H         5.390458        -1.324342         1.324607
 H         5.811884         0.604488         0.174535
 H         4.381787         2.068533        -0.961553
 H         1.926593         2.050994        -0.907808
