19
Iteration:  2502
 C         0.036984         0.434293         0.100124
 C         1.434660         0.060704         0.169861
 C         2.096590        -0.756972         1.217397
 O         3.349528        -1.362521         0.758738
 C         4.492102        -0.743989         1.250816
 C         4.712025         0.567924         0.418608
 C         3.805368         1.172860        -0.423676
 C         2.413136         0.845983        -0.729154
 O         1.953505        -0.416460        -1.107199
 H        -0.418506        -0.057697        -0.666804
 H        -0.524591         0.152664         1.004352
 H        -0.000421         1.480599        -0.065340
 H         2.290537        -0.074074         2.058933
 H         1.330704        -1.493031         1.534575
 H         4.662874        -0.637931         2.320077
 H         5.280918        -1.426748         0.764487
 H         5.489024         1.281984         0.779106
 H         4.194650         2.057445        -0.865560
 H         1.900926         1.675725        -1.294899
