19
Iteration:  3018charge 0 multiplicity 1
 C        -0.035223         0.238044         0.263735
 C         1.456851         0.063338         0.072609
 C         2.037549        -0.947982         1.069613
 O         3.342460        -1.367923         0.743523
 C         4.393975        -0.647016         1.309392
 C         4.806741         0.418206         0.335758
 C         3.947035         1.082945        -0.365544
 C         2.424877         1.039010        -0.456650
 O         1.951483        -0.050256        -1.278433
 H        -0.351199         0.482783        -0.886510
 H        -0.363950        -0.860781         0.565396
 H        -0.552321         0.952953         1.029785
 H         2.005658        -0.447009         2.028531
 H         1.385575        -1.799230         1.170351
 H         4.177429        -0.073697         2.357032
 H         5.246116        -1.272253         1.563522
 H         5.904977         0.474355         0.090339
 H         4.260295         1.834562        -1.093447
 H         2.149981         1.923150        -0.976857
