19
Iteration:  3194
 C         0.141482         0.292992         0.208956
 C         1.607118        -0.032201         0.116430
 C         1.977290        -1.171934         0.991017
 O         3.367866        -1.583774         1.142430
 C         4.351740        -0.550553         1.300988
 C         4.688305         0.391644         0.130968
 C         3.871865         1.252090        -0.477596
 C         2.417429         1.107640        -0.389181
 O         1.933489         0.069144        -1.381637
 H        -0.094436         0.874999        -0.721149
 H        -0.536861        -0.623598         0.133823
 H        -0.143186         0.797680         1.154567
 H         1.840653        -0.552616         1.965574
 H         1.321938        -2.005379         0.933824
 H         3.988726         0.068124         2.145720
 H         5.295401        -0.993616         1.562776
 H         5.688551         0.459866        -0.142724
 H         4.214388         2.043624        -1.182497
 H         1.890610         2.162789        -0.556755
