19
Iteration:  1443
 C         0.122997         0.477690         0.061698
 C         1.576948         0.091449         0.150973
 C         1.974411        -0.862972         1.251730
 O         3.306782        -1.466235         1.133097
 C         4.403766        -0.530734         1.155992
 C         4.692687         0.469423         0.183139
 C         3.786478         1.262798        -0.528840
 C         2.353026         0.858257        -0.766848
 O         2.083694        -0.477587        -1.073827
 H         0.130051         1.433370         0.652822
 H        -0.104721         0.672153        -1.025778
 H        -0.438308        -0.207237         0.603205
 H         1.878565        -0.374790         2.211850
 H         1.182468        -1.659759         1.050891
 H         4.411848        -0.039072         2.192288
 H         5.111862        -1.216753         1.253235
 H         5.749271         0.811790         0.158540
 H         4.150612         2.185578        -0.940199
 H         1.706325         1.764474        -1.148033
