19
Iteration:   669
 C         0.033663         0.503108         0.110633
 C         1.502265         0.078035         0.138066
 C         1.991591        -0.884816         1.243985
 O         3.255262        -1.395676         1.052174
 C         4.478650        -0.575919         1.232376
 C         4.719970         0.562132         0.208566
 C         3.847288         1.205919        -0.507818
 C         2.437161         0.844018        -0.744501
 O         2.092471        -0.506813        -1.121870
 H        -0.290792         1.126072         1.008782
 H        -0.140544         1.010642        -0.790422
 H        -0.648477        -0.381040         0.105730
 H         1.925802        -0.359684         2.274710
 H         1.106742        -1.663783         1.248502
 H         4.441030        -0.223064         2.245160
 H         5.238353        -1.272227         1.197851
 H         5.723247         0.997866         0.117216
 H         4.117913         2.153547        -1.212819
 H         1.788289         1.723714        -1.205751
