19
Iteration:   956charge 0 multiplicity 1
 C         0.184491         0.366695         0.270838
 C         1.572845         0.042315         0.021048
 C         2.061189        -0.676348         1.241888
 O         3.277041        -1.440483         1.000954
 C         4.353810        -0.628566         1.294701
 C         4.657145         0.533681         0.443707
 C         3.832731         1.211095        -0.572074
 C         2.439114         0.881999        -0.866703
 O         1.954708        -0.462701        -1.241115
 H         0.013163         1.213205         0.835373
 H        -0.244936         0.589920        -0.750302
 H        -0.387923        -0.437857         0.632821
 H         2.221204         0.065575         2.104370
 H         1.342463        -1.441883         1.691142
 H         4.344095        -0.292341         2.318197
 H         5.170616        -1.254396         1.174753
 H         5.563659         1.053631         0.439845
 H         4.170778         2.041857        -1.173011
 H         1.828274         1.604503        -1.390784
