19
Iteration:  4140
 C         0.083222         0.367199         0.350133
 C         1.541621         0.060723         0.003087
 C         2.076935        -0.972873         0.965445
 O         3.372025        -1.606168         0.965374
 C         4.407232        -0.592651         1.405282
 C         4.732478         0.611929         0.544332
 C         3.917338         1.076637        -0.452680
 C         2.481606         0.990378        -0.641061
 O         1.751375        -0.071378        -1.486950
 H        -0.601106         0.586520        -0.476759
 H        -0.242804        -0.544060         0.951317
 H        -0.050249         1.158352         1.061027
 H         1.821708        -0.725881         1.960292
 H         1.417781        -1.896749         0.568801
 H         4.250266        -0.276230         2.409247
 H         5.371628        -1.136367         1.447011
 H         5.744817         0.752765         0.531491
 H         4.402812         1.862891        -1.098268
 H         1.968775         2.037776        -1.069737
