19
Iteration:  1276
 C         0.058718         0.248979         0.306737
 C         1.510685         0.068326         0.046616
 C         1.971480        -0.877043         1.191507
 O         3.356902        -1.318498         1.054223
 C         4.322218        -0.386964         1.470083
 C         4.807336         0.380437         0.284295
 C         4.024530         0.979583        -0.627572
 C         2.424273         0.978341        -0.793375
 O         1.866128        -0.235183        -1.327422
 H        -0.114913         0.581294         1.329684
 H        -0.488085         0.893120        -0.325098
 H        -0.408741        -0.776287         0.146861
 H         1.918851        -0.373910         2.128056
 H         1.432060        -1.860586         1.080184
 H         4.086773         0.212634         2.350639
 H         5.094347        -0.995865         1.837693
 H         5.870606         0.486595         0.135746
 H         4.495444         1.428952        -1.620954
 H         2.059969         2.040558        -1.190874
