19
Iteration:  2347
 C        -0.005483         0.521458         0.152059
 C         1.533103         0.034282         0.138336
 C         2.023362        -0.848523         1.308313
 O         3.318563        -1.442209         0.896563
 C         4.438707        -0.589410         1.196679
 C         4.711451         0.634077         0.358069
 C         3.913048         1.213321        -0.517486
 C         2.437712         0.780512        -0.802444
 O         1.952144        -0.477221        -1.134723
 H        -0.117986         1.438114         0.622215
 H        -0.407822         0.609434        -0.859749
 H        -0.775397        -0.203122         0.698390
 H         2.080981        -0.402891         2.268227
 H         1.338488        -1.700426         1.316570
 H         4.375185        -0.230463         2.206471
 H         5.379689        -1.240037         1.198065
 H         5.780158         1.127550         0.624414
 H         4.290997         2.178339        -0.908801
 H         2.047646         1.646698        -1.316625
