19
Iteration:  4207charge 0 multiplicity 1
 C         0.010507         0.338239         0.079032
 C         1.501364         0.029840         0.179918
 C         1.996106        -1.081920         1.148167
 O         3.308464        -1.595910         0.833133
 C         4.299229        -0.567829         1.215304
 C         4.759195         0.432064         0.192517
 C         3.933229         1.296825        -0.474901
 C         2.476872         1.086727        -0.433550
 O         2.085383        -0.098876        -1.078937
 H        -0.369413        -0.321285        -0.768667
 H        -0.580985         0.157731         0.983820
 H        -0.127375         1.372863        -0.190241
 H         1.913932        -0.846124         2.194629
 H         1.314987        -1.996448         0.795755
 H         3.761052         0.010211         2.087700
 H         5.207558        -1.130884         1.482371
 H         5.817028         0.573521         0.175804
 H         4.200706         2.274803        -0.968938
 H         1.798253         2.086427        -0.691112
