19
Iteration:  2677charge 0 multiplicity 1
 C         0.175091         0.450085         0.419824
 C         1.632388        -0.017869        -0.050784
 C         2.058256        -1.116284         0.959042
 O         3.400819        -1.596653         1.038591
 C         4.321151        -0.558435         1.414908
 C         4.669934         0.588855         0.412934
 C         3.929172         1.180107        -0.495624
 C         2.392900         1.031391        -0.671256
 O         1.778289        -0.116449        -1.435975
 H         0.320568         1.451180         0.796599
 H        -0.528294         0.232068        -0.474713
 H        -0.319787        -0.170998         1.275242
 H         1.749144        -0.708830         1.904792
 H         1.459504        -2.013350         0.690749
 H         3.981782        -0.274948         2.430126
 H         5.314523        -1.032970         1.580428
 H         5.692823         0.900179         0.458526
 H         4.308799         1.824553        -1.305785
 H         1.953598         1.979809        -0.832527
