19
Iteration:  1989
 C         0.007289         0.281595         0.068364
 C         1.529765         0.097457         0.134146
 C         2.003993        -0.727545         1.350911
 O         3.221892        -1.341639         1.043628
 C         4.409838        -0.685684         1.106807
 C         4.740918         0.530742         0.229911
 C         3.897977         1.219061        -0.520891
 C         2.482293         0.896918        -0.718146
 O         2.027423        -0.422700        -1.133772
 H        -0.511484         0.608193         1.101115
 H        -0.264590         1.051729        -0.654773
 H        -0.347242        -0.660615        -0.064193
 H         2.214551        -0.036799         2.242698
 H         1.427384        -1.598396         1.675075
 H         4.448167        -0.159581         2.040900
 H         5.185355        -1.489685         1.219206
 H         5.761837         0.843724         0.282616
 H         4.293281         2.110779        -0.931452
 H         1.883850         1.678925        -1.237742
