19
Iteration:   933
 C         0.092523         0.535478         0.163568
 C         1.566147         0.078312         0.122237
 C         2.008980        -0.903373         1.291623
 O         3.273914        -1.491616         1.038810
 C         4.353487        -0.527008         1.204449
 C         4.691497         0.570782         0.314017
 C         3.833913         1.234307        -0.622074
 C         2.439845         0.877393        -0.808808
 O         2.087925        -0.504695        -1.107376
 H        -0.030215         1.296903         0.850104
 H        -0.326601         0.935948        -0.778705
 H        -0.554430        -0.244795         0.443568
 H         1.813816        -0.570200         2.364228
 H         1.338185        -1.834981         1.193123
 H         4.353598        -0.086926         2.171243
 H         5.175724        -1.156900         1.161463
 H         5.641190         1.064786         0.389585
 H         4.096070         2.085303        -1.231607
 H         1.818622         1.522417        -1.397819
