19
Iteration:   743charge 0 multiplicity 1
 C        -0.011685         0.368719         0.400217
 C         1.516053         0.045011        -0.015042
 C         2.037967        -0.771419         1.118782
 O         3.341180        -1.362173         0.993159
 C         4.384842        -0.539654         1.389655
 C         4.722247         0.522656         0.399345
 C         3.951794         1.061383        -0.570751
 C         2.506061         0.873862        -0.833994
 O         1.913555        -0.394427        -1.328591
 H        -0.177240         1.198899         1.078514
 H        -0.698651         0.454497        -0.400293
 H        -0.368213        -0.517001         0.927099
 H         2.015868        -0.138359         1.987764
 H         1.226743        -1.474854         1.325740
 H         4.118187        -0.041368         2.394977
 H         5.326960        -1.138786         1.621098
 H         5.736236         0.901585         0.498095
 H         4.356940         1.902926        -1.296507
 H         2.048733         1.697372        -1.394923
