19
Iteration:  4446charge 0 multiplicity 1
 C         0.043992         0.444868         0.207819
 C         1.515721        -0.018101         0.082944
 C         2.002145        -1.164472         0.982016
 O         3.331369        -1.596400         0.749429
 C         4.413297        -0.608573         1.286417
 C         4.697288         0.482252         0.422819
 C         3.882825         1.289732        -0.381515
 C         2.407100         1.096414        -0.452835
 O         2.032956        -0.058664        -1.209284
 H        -0.614482        -0.194439         0.940840
 H         0.159488         1.538327         0.431431
 H        -0.516577         0.255044        -0.779302
 H         1.882567        -0.833236         2.026748
 H         1.372939        -1.881232         0.573043
 H         4.013045        -0.434222         2.312844
 H         5.321747        -1.361522         1.459845
 H         5.764047         0.666738         0.416748
 H         4.359170         2.048807        -0.946449
 H         1.830844         1.886955        -0.810820
