19
Iteration:  3931charge 0 multiplicity 1
 C         0.052606         0.446500         0.191736
 C         1.443813        -0.020421         0.104190
 C         2.090541        -0.981010         1.111991
 O         3.304085        -1.433874         0.695331
 C         4.381571        -0.699200         1.204593
 C         4.729640         0.597873         0.422846
 C         3.871461         1.302693        -0.316712
 C         2.462888         0.956581        -0.554139
 O         1.973384        -0.330650        -1.188868
 H         0.035835         1.151581        -0.590903
 H        -0.679921        -0.448270         0.100000
 H        -0.063057         1.075651         1.083442
 H         2.157236        -0.336454         2.081249
 H         1.216812        -1.817737         1.179482
 H         4.274407        -0.530387         2.269737
 H         5.222835        -1.397364         1.265765
 H         5.857706         0.752703         0.427087
 H         4.187011         2.257660        -0.677922
 H         1.906688         1.757367        -1.179048
