19
Iteration:  1915
 C         0.109748         0.464011         0.251970
 C         1.501997        -0.028713        -0.044551
 C         2.105229        -0.652153         1.202220
 O         3.319883        -1.393718         1.058794
 C         4.596495        -0.660811         1.278221
 C         4.649372         0.620015         0.551413
 C         3.815179         1.091824        -0.446755
 C         2.368828         0.823375        -0.917721
 O         1.806797        -0.445287        -1.358400
 H        -0.064247         1.354569         0.884933
 H        -0.394705         0.690582        -0.729671
 H        -0.381385        -0.471779         0.659710
 H         2.286439         0.105340         1.964781
 H         1.458109        -1.395524         1.638276
 H         4.822591        -0.463018         2.401276
 H         5.529542        -1.316266         1.096609
 H         5.712093         1.025523         0.711766
 H         4.297531         1.886637        -0.921876
 H         1.880770         1.581130        -1.373036
