19
Iteration:  4005
 C         0.010938         0.159699         0.276430
 C         1.561067         0.030994        -0.006767
 C         2.064165        -0.921615         1.049853
 O         3.351738        -1.545183         1.092031
 C         4.455128        -0.634780         1.327497
 C         4.727182         0.367385         0.315894
 C         3.833342         1.083969        -0.412090
 C         2.384403         1.061728        -0.484880
 O         1.927558         0.156089        -1.535996
 H        -0.276353         0.913496        -0.453316
 H        -0.440693        -0.766067         0.161024
 H        -0.194354         0.696909         1.257171
 H         1.834447        -0.437808         1.989369
 H         1.319493        -1.738538         1.023079
 H         4.319571        -0.092270         2.258029
 H         5.373574        -1.316885         1.523419
 H         5.860406         0.530190        -0.012294
 H         4.255737         1.948125        -0.951857
 H         1.990573         2.197667        -0.448073
