19
Iteration:  2793charge 0 multiplicity 1
 C         0.005777         0.289517         0.165887
 C         1.509632         0.065696         0.038588
 C         2.016977        -0.972023         1.103933
 O         3.365857        -1.575092         1.016484
 C         4.492737        -0.776691         1.277856
 C         4.723946         0.459095         0.322635
 C         3.896489         1.282175        -0.377994
 C         2.361749         1.123183        -0.533806
 O         1.924727        -0.072949        -1.366190
 H        -0.408500         0.593684        -0.739402
 H        -0.505968        -0.561277         0.591353
 H        -0.146714         1.132939         0.839953
 H         1.966253        -0.378453         2.064565
 H         1.423565        -1.870614         1.103678
 H         4.488061        -0.148639         2.227032
 H         5.458294        -1.447446         1.257416
 H         5.782319         0.610878         0.265299
 H         4.303310         2.161865        -0.948944
 H         1.847173         2.096504        -0.990316
