19
Iteration:  3208charge 0 multiplicity 1
 C         0.116936         0.287723         0.191595
 C         1.593470         0.004868         0.006371
 C         2.095518        -1.111737         1.075509
 O         3.362730        -1.679073         1.169518
 C         4.296538        -0.592953         1.288135
 C         4.642266         0.369885         0.098058
 C         3.845126         1.345262        -0.477770
 C         2.408584         1.187835        -0.474908
 O         1.991366         0.051140        -1.292856
 H        -0.225817         1.057481        -0.496388
 H        -0.458848        -0.768029         0.004548
 H        -0.143103         0.784018         1.309315
 H         1.648189        -0.757534         2.162866
 H         1.479148        -2.029889         0.863610
 H         4.060926         0.049142         2.081897
 H         5.152573        -1.125379         1.564916
 H         5.771819         0.386955        -0.106076
 H         4.253814         2.012107        -1.172384
 H         1.766637         2.023923        -0.677912
