19
Iteration:  4981charge 0 multiplicity 1
 C        -0.007992         0.349591         0.079316
 C         1.484371         0.014232         0.104142
 C         1.991515        -1.091088         1.078633
 O         3.358328        -1.460601         0.741310
 C         4.382708        -0.651036         1.283070
 C         4.770730         0.412677         0.297581
 C         3.936616         1.248967        -0.307789
 C         2.399073         1.093779        -0.388433
 O         2.031122        -0.068570        -1.179969
 H        -0.397490         0.350332         1.095984
 H        -0.241858         1.249373        -0.386644
 H        -0.514563        -0.505993        -0.428392
 H         1.685415        -1.017958         2.177458
 H         1.376842        -1.908615         0.685262
 H         4.211836        -0.110374         2.286316
 H         5.255763        -1.290921         1.442141
 H         5.776468         0.534073         0.050846
 H         4.299909         2.073331        -0.917098
 H         1.785359         2.047432        -0.703757
