19
Iteration:  1200
 C         0.136274         0.629278         0.126053
 C         1.552337        -0.008701         0.105251
 C         1.996442        -0.988023         1.168320
 O         3.363470        -1.452037         1.110858
 C         4.415262        -0.485625         1.263028
 C         4.680412         0.543565         0.296363
 C         3.798672         1.159578        -0.581134
 C         2.385606         0.882149        -0.703761
 O         1.977782        -0.488031        -1.170303
 H         0.159547         1.243477         0.996031
 H        -0.078083         1.182659        -0.733929
 H        -0.693878        -0.081644         0.210777
 H         1.779199        -0.532712         2.202773
 H         1.332556        -1.936018         0.866966
 H         4.348116        -0.020273         2.267479
 H         5.241667        -1.115277         1.425978
 H         5.608182         1.107115         0.351213
 H         4.186014         2.117236        -1.276531
 H         2.024298         1.747035        -1.398870
