19
Iteration:  3607
 C         0.098244         0.292455         0.216882
 C         1.582146         0.040816         0.005614
 C         2.054560        -1.017793         1.092268
 O         3.386505        -1.654601         1.104942
 C         4.443592        -0.671694         1.285900
 C         4.642573         0.379867         0.211210
 C         3.833850         1.261037        -0.405431
 C         2.343725         1.198194        -0.518299
 O         1.939086         0.013450        -1.363772
 H        -0.367904         0.658327        -0.780533
 H        -0.163396        -0.635876         0.431926
 H        -0.152279         1.090680         0.932973
 H         1.681299        -0.625355         2.047335
 H         1.395877        -1.818731         0.860585
 H         4.230213        -0.202146         2.349718
 H         5.297250        -1.270976         1.384444
 H         5.739044         0.605925        -0.011729
 H         4.296536         2.051189        -0.972300
 H         1.798161         2.084904        -0.715955
