19
Iteration:  3612
 C         0.090833         0.302740         0.227339
 C         1.551611         0.060893        -0.015645
 C         2.057783        -1.020612         1.076952
 O         3.378077        -1.641906         1.090664
 C         4.410553        -0.676493         1.317650
 C         4.666630         0.395505         0.245093
 C         3.829406         1.254537        -0.451781
 C         2.359350         1.200817        -0.511892
 O         1.962240         0.009312        -1.355865
 H        -0.369508         0.537744        -0.677494
 H        -0.372113        -0.837012         0.508558
 H        -0.061257         1.051089         1.016881
 H         1.777625        -0.612348         2.131285
 H         1.391434        -1.951755         0.863695
 H         4.299282        -0.241069         2.279521
 H         5.418299        -1.257349         1.202265
 H         5.702655         0.544526         0.058497
 H         4.404698         2.040705        -1.020987
 H         1.717521         2.116421        -0.729536
