19
Iteration:  3902
 C         0.069056         0.491630         0.299753
 C         1.456448         0.056591         0.044875
 C         2.077322        -0.886214         1.117856
 O         3.358656        -1.367736         0.650587
 C         4.549554        -0.745901         1.217135
 C         4.669744         0.637718         0.668921
 C         3.814514         1.143063        -0.299889
 C         2.446949         0.832312        -0.768673
 O         1.862782        -0.352169        -1.283413
 H        -0.150480         1.303445        -0.474093
 H        -0.752723        -0.330858         0.152548
 H         0.048090         0.834520         1.332836
 H         2.198942        -0.320221         2.016385
 H         1.404387        -1.675688         1.258657
 H         4.480717        -0.764185         2.377483
 H         5.382360        -1.440711         0.968699
 H         5.531995         1.198182         0.982974
 H         4.136981         2.148022        -0.532866
 H         2.116150         1.683603        -1.288702
