19
Iteration:  4705charge 0 multiplicity 1
 C         0.222580         0.577622         0.275982
 C         1.558171         0.069371         0.071054
 C         2.103850        -1.011771         1.032797
 O         3.354792        -1.542499         0.636051
 C         4.310203        -0.730183         1.229437
 C         4.596315         0.670758         0.662204
 C         3.803513         1.249753        -0.239032
 C         2.423411         0.950466        -0.719596
 O         1.928316        -0.362671        -1.255082
 H        -0.587968        -0.149168        -0.016237
 H        -0.002998         0.741193         1.413690
 H        -0.060298         1.483412        -0.275823
 H         2.282380        -0.667050         2.090848
 H         1.322374        -1.868031         0.840780
 H         4.198564        -0.649359         2.385278
 H         5.241804        -1.234063         0.932260
 H         5.674529         0.988970         0.853848
 H         4.206638         2.147911        -0.685953
 H         1.923514         1.841968        -1.355408
