19
Iteration:  4006
 C         0.008583         0.168384         0.280273
 C         1.556382         0.025747        -0.007260
 C         2.069412        -0.913126         1.042694
 O         3.350095        -1.545808         1.082688
 C         4.460704        -0.633890         1.332077
 C         4.721606         0.368212         0.318586
 C         3.841964         1.077988        -0.413488
 C         2.380487         1.056554        -0.495090
 O         1.932387         0.157416        -1.525321
 H        -0.267848         0.895545        -0.417803
 H        -0.453857        -0.755772         0.139567
 H        -0.208887         0.680168         1.238925
 H         1.851481        -0.471107         1.990717
 H         1.300963        -1.777122         1.041733
 H         4.295745        -0.047952         2.307336
 H         5.377779        -1.300227         1.520759
 H         5.828970         0.552656        -0.011942
 H         4.231361         1.917466        -0.961195
 H         2.001421         2.200353        -0.425626
