19
Iteration:  2614
 C        -0.014279         0.341174         0.185894
 C         1.519016         0.027531         0.160602
 C         1.997379        -1.018625         1.101298
 O         3.364545        -1.385814         0.828890
 C         4.349631        -0.457033         1.348988
 C         4.801427         0.432808         0.223344
 C         3.908967         1.089877        -0.460778
 C         2.473186         0.956834        -0.525671
 O         1.962496        -0.166051        -1.220429
 H        -0.519055         0.324897         1.151858
 H        -0.152805         1.351714        -0.104406
 H        -0.491732        -0.363267        -0.367553
 H         1.820702        -0.799832         2.204054
 H         1.430680        -1.982831         0.909376
 H         3.962492         0.135401         2.220214
 H         5.215400        -1.111426         1.835299
 H         5.848042         0.557265         0.063709
 H         4.324649         1.767033        -1.237710
 H         1.856857         1.956254        -0.776028
