19
Iteration:   747
 C        -0.007063         0.381689         0.404772
 C         1.506184         0.065106        -0.004679
 C         2.035956        -0.782786         1.118992
 O         3.319957        -1.379775         0.963444
 C         4.404481        -0.535051         1.403365
 C         4.737933         0.566884         0.356462
 C         3.966675         1.065291        -0.560985
 C         2.485822         0.850639        -0.814087
 O         1.922238        -0.407902        -1.291160
 H        -0.170175         1.263630         1.058048
 H        -0.541790         0.452904        -0.569606
 H        -0.363347        -0.587232         0.797332
 H         1.936379        -0.173882         2.039177
 H         1.173191        -1.515060         1.250122
 H         4.069089        -0.062220         2.378859
 H         5.231012        -1.094731         1.706440
 H         5.784939         0.887452         0.456290
 H         4.402774         1.844196        -1.286195
 H         1.991956         1.712882        -1.397597
