19
Iteration:  4121charge 0 multiplicity 1
 C         0.189183         0.441234         0.442719
 C         1.556928         0.022152        -0.051949
 C         2.078628        -1.107762         0.937105
 O         3.444134        -1.497886         0.934579
 C         4.373313        -0.658854         1.450917
 C         4.629917         0.547869         0.566997
 C         3.905217         1.158260        -0.451589
 C         2.474704         0.986244        -0.846948
 O         1.698265        -0.111025        -1.431487
 H        -0.207487         1.090435        -0.410352
 H        -0.410452        -0.431417         0.613451
 H         0.117837         1.127885         1.259192
 H         1.836486        -0.615181         1.911622
 H         1.444733        -2.058004         0.899908
 H         4.148501        -0.323332         2.488743
 H         5.244542        -1.231515         1.654582
 H         5.537350         1.042972         0.962963
 H         4.504254         1.978559        -0.941701
 H         1.954062         1.962783        -1.028814
