19
Iteration:  2073
 C         0.089989         0.387983         0.215763
 C         1.572550         0.041485         0.074637
 C         1.995759        -0.827324         1.205797
 O         3.345587        -1.481995         1.131536
 C         4.410970        -0.527099         1.277141
 C         4.724534         0.464835         0.246007
 C         3.915559         1.212715        -0.538177
 C         2.438649         0.943015        -0.768419
 O         1.887958        -0.385708        -1.270233
 H        -0.092875         0.852068         1.121962
 H        -0.371520         0.944181        -0.577401
 H        -0.658060        -0.546777         0.201629
 H         1.912685        -0.388403         2.168462
 H         1.153694        -1.521505         1.093897
 H         4.342621        -0.026609         2.271669
 H         5.262704        -1.133114         1.292387
 H         5.656067         0.877204         0.399682
 H         4.317922         2.132411        -0.970130
 H         1.913327         1.809740        -1.292586
