19
Iteration:  4225charge 0 multiplicity 1
 C         0.076821         0.303042         0.141715
 C         1.587225         0.059456         0.145509
 C         1.965290        -1.164335         1.128090
 O         3.278432        -1.478567         0.890948
 C         4.382697        -0.650741         1.240191
 C         4.699753         0.457772         0.291312
 C         3.889574         1.322174        -0.384220
 C         2.416683         1.109893        -0.517961
 O         2.040105        -0.077091        -1.248137
 H        -0.431950        -0.556592        -0.262126
 H        -0.403307         0.466115         1.183451
 H        -0.082525         1.249781        -0.363965
 H         1.786487        -0.744827         2.189725
 H         1.323178        -1.997346         0.990453
 H         4.195888        -0.234665         2.228227
 H         5.127454        -1.494204         1.185282
 H         5.756751         0.572251         0.110660
 H         4.420002         1.946300        -1.156456
 H         1.944191         1.917671        -0.882275
