19
Iteration:  1603charge 0 multiplicity 1
 C         0.030912         0.403026         0.115678
 C         1.525243         0.009433         0.103466
 C         2.017113        -0.728519         1.295119
 O         3.276468        -1.421657         1.047024
 C         4.471403        -0.607567         1.201238
 C         4.717255         0.507848         0.253946
 C         3.851655         1.204766        -0.551442
 C         2.392828         0.922375        -0.701741
 O         2.032035        -0.456691        -1.142412
 H        -0.123986         1.353764         0.595558
 H        -0.238893         0.492503        -0.970494
 H        -0.867872        -0.271077         0.347472
 H         2.002978        -0.121061         2.219782
 H         1.249737        -1.499144         1.362599
 H         4.707300        -0.221304         2.259664
 H         5.362558        -1.332865         1.079211
 H         5.758256         0.924245         0.287672
 H         4.244245         2.027921        -1.019776
 H         1.839770         1.627500        -1.181478
