19
Iteration:  2724
 C         0.135376         0.561849         0.428211
 C         1.519190         0.052374         0.046117
 C         2.020821        -1.124756         0.938218
 O         3.378837        -1.506201         0.759247
 C         4.321631        -0.574836         1.321806
 C         4.686980         0.638800         0.555489
 C         3.919397         1.207878        -0.438417
 C         2.456689         0.869640        -0.664803
 O         1.882894        -0.307606        -1.295238
 H         0.175601         1.641382         0.225147
 H        -0.602713         0.049333        -0.115048
 H        -0.085559         0.465575         1.430572
 H         1.855524        -0.862237         1.988479
 H         1.421285        -2.028837         0.625332
 H         3.866037        -0.160057         2.272628
 H         5.342484        -1.081757         1.634223
 H         5.713091         1.090629         0.556785
 H         4.338095         2.008435        -1.036665
 H         2.013070         1.791714        -1.212175
