19
Iteration:  2396
 C        -0.054389         0.243118         0.123879
 C         1.436056         0.107234         0.022371
 C         2.104383        -0.690889         1.347265
 O         3.276846        -1.380354         1.042267
 C         4.518346        -0.728176         1.191715
 C         4.761084         0.466694         0.280301
 C         3.869578         1.134258        -0.428094
 C         2.412527         0.936736        -0.687065
 O         1.971998        -0.292191        -1.291765
 H        -0.587517         1.309038         0.132018
 H        -0.531857        -0.342947        -0.713040
 H        -0.434920        -0.265127         0.944304
 H         2.482985         0.178123         1.962490
 H         1.473545        -1.362407         1.957116
 H         4.592190        -0.262665         2.160482
 H         5.251036        -1.460443         1.145935
 H         5.602368         1.003826         0.421339
 H         4.367904         1.977928        -0.878851
 H         2.174677         1.826650        -1.303382
