19
Iteration:  3424
 C         0.001701         0.237404         0.156556
 C         1.466419         0.028453         0.128904
 C         2.031766        -0.838744         1.172777
 O         3.307368        -1.413034         0.749064
 C         4.427158        -0.718562         1.167060
 C         4.730327         0.452215         0.312747
 C         3.855435         1.135871        -0.357121
 C         2.387254         1.084652        -0.456964
 O         2.082394        -0.105240        -1.200138
 H        -0.489208         0.389295        -0.733339
 H        -0.433300        -0.701297         0.536207
 H        -0.306673         0.994545         0.772464
 H         2.105965        -0.285567         2.157107
 H         1.370313        -1.783147         1.232099
 H         4.323080        -0.399873         2.290153
 H         5.299672        -1.558855         1.069604
 H         5.835577         0.619207         0.334239
 H         4.256813         1.912799        -0.952101
 H         1.949243         2.010938        -0.938411
