19
Iteration:  1523charge 0 multiplicity 1
 C        -0.066912         0.248169         0.147267
 C         1.434653         0.091810        -0.019738
 C         2.234056        -0.517834         1.309445
 O         3.334782        -1.347228         1.138748
 C         4.576865        -0.762545         1.259590
 C         4.779902         0.519299         0.435026
 C         3.799048         1.104192        -0.386348
 C         2.403841         0.829854        -0.891266
 O         1.824922        -0.353627        -1.362595
 H        -0.585131         0.351522         1.130176
 H        -0.432712         1.117583        -0.359686
 H        -0.629585        -0.612845        -0.370425
 H         2.501243         0.351651         1.906834
 H         1.434434        -1.060179         1.917067
 H         4.744430        -0.482327         2.367352
 H         5.204491        -1.561667         0.937544
 H         5.802795         0.907832         0.475976
 H         4.321851         1.914661        -1.037131
 H         2.086691         1.601147        -1.589392
