19
Iteration:   898
 C         0.059018         0.547956         0.103956
 C         1.488974        -0.018011         0.061387
 C         1.998336        -0.926443         1.243756
 O         3.384415        -1.318581         1.093829
 C         4.434717        -0.458529         1.304282
 C         4.803086         0.478427         0.193264
 C         3.812528         1.113147        -0.494907
 C         2.403479         0.860697        -0.616228
 O         1.894107        -0.454060        -1.257619
 H        -0.167601         1.082546         1.029654
 H        -0.087887         1.097814        -0.771242
 H        -0.586501        -0.328287         0.100934
 H         1.909467        -0.555206         2.310467
 H         1.415528        -1.873281         1.007476
 H         4.359023        -0.032645         2.277992
 H         5.336350        -1.118628         1.343412
 H         5.896227         0.721593         0.109879
 H         4.365106         1.843360        -1.273889
 H         2.044977         1.825106        -1.012990
