19
Iteration:  1166charge 0 multiplicity 1
 C         0.125084         0.472822         0.271654
 C         1.587668         0.069689         0.040017
 C         1.974236        -0.829071         1.228115
 O         3.247079        -1.429947         0.975652
 C         4.335296        -0.561845         1.238374
 C         4.672261         0.637666         0.351653
 C         3.846606         1.214168        -0.525496
 C         2.496663         0.834161        -0.780444
 O         2.048017        -0.558871        -1.200568
 H         0.158145         1.171183         1.056090
 H        -0.239229         0.986763        -0.564025
 H        -0.538968        -0.347383         0.584633
 H         1.903308        -0.232585         2.172239
 H         1.103809        -1.601891         1.407185
 H         4.286792        -0.126355         2.263651
 H         5.156860        -1.234806         1.161862
 H         5.676231         1.039071         0.459887
 H         4.332724         2.052013        -1.277117
 H         1.932977         1.523829        -1.510416
