19
Iteration:  4672charge 0 multiplicity 1
 C         0.079078         0.463044         0.333485
 C         1.487226         0.009849        -0.075494
 C         2.079617        -0.986759         1.019641
 O         3.391272        -1.523981         0.897441
 C         4.446638        -0.727907         1.271734
 C         4.692316         0.550346         0.607356
 C         3.892914         1.198884        -0.349614
 C         2.386318         0.971020        -0.703585
 O         1.884938        -0.149791        -1.427490
 H        -0.647374        -0.006205        -0.349694
 H        -0.120997         0.117874         1.438133
 H        -0.140297         1.533391         0.362292
 H         1.907172        -0.426989         1.972704
 H         1.330571        -1.874139         1.195482
 H         4.543155        -0.727059         2.372575
 H         5.260337        -1.378837         0.930305
 H         5.579169         1.084562         1.042419
 H         4.117653         2.240104        -0.520082
 H         1.929759         1.945525        -1.178995
