19
Iteration:  2684charge 0 multiplicity 1
 C         0.200721         0.471381         0.424954
 C         1.607528        -0.075056        -0.046474
 C         2.045990        -1.118378         0.941967
 O         3.443962        -1.601409         1.037713
 C         4.353685        -0.545493         1.360868
 C         4.575279         0.556998         0.472674
 C         3.848928         1.213690        -0.476720
 C         2.447802         1.032802        -0.707541
 O         1.786705        -0.131282        -1.414303
 H         0.237753         1.585893         0.568383
 H        -0.481494         0.550025        -0.458838
 H        -0.106052         0.012622         1.448526
 H         1.679077        -0.849307         1.985473
 H         1.515141        -2.006602         0.663493
 H         4.065334        -0.126703         2.344327
 H         5.212824        -1.093074         1.611641
 H         5.664242         0.815767         0.427332
 H         4.429586         1.803653        -1.192840
 H         2.077063         2.066411        -0.973954
