19
Iteration:   137charge 0 multiplicity 1
 C        -0.010917         0.244376         0.116548
 C         1.510704         0.085426         0.039159
 C         2.076311        -0.525122         1.368054
 O         3.209674        -1.218433         0.988179
 C         4.492283        -0.756632         1.069632
 C         4.708520         0.468022         0.330228
 C         3.799642         1.131364        -0.432007
 C         2.458027         0.872127        -0.739473
 O         2.054049        -0.469902        -1.123308
 H        -0.334619         0.479569         1.170978
 H        -0.247471         1.156153        -0.399672
 H        -0.579953        -0.626763        -0.265379
 H         2.119048         0.261820         2.136620
 H         1.329547        -1.253106         1.811527
 H         4.882248        -0.701916         2.083844
 H         5.138259        -1.605452         0.575343
 H         5.755951         0.917677         0.460148
 H         4.343862         1.987741        -1.018439
 H         1.902439         1.634120        -1.371447
