19
Iteration:  1497
 C         0.026483         0.206493         0.152065
 C         1.491006         0.077136        -0.027099
 C         2.081366        -0.506417         1.263683
 O         3.313539        -1.338288         1.079692
 C         4.524371        -0.718216         1.249345
 C         4.729892         0.483891         0.348078
 C         3.850413         1.045753        -0.491123
 C         2.431074         0.944995        -0.744933
 O         1.889972        -0.393231        -1.248561
 H        -0.462249         0.556457         1.095165
 H        -0.319194         1.004956        -0.627384
 H        -0.449600        -0.719798        -0.029116
 H         2.257776         0.339971         2.005971
 H         1.296322        -1.203230         1.696888
 H         4.687129        -0.340064         2.303867
 H         5.175533        -1.549975         1.079750
 H         5.718324         0.932672         0.553584
 H         4.267180         1.955968        -0.950803
 H         1.901846         1.790627        -1.383519
