19
Iteration:  1750
 C         0.146850         0.462001         0.359687
 C         1.531158         0.018421         0.046702
 C         2.009859        -0.981863         1.084233
 O         3.422591        -1.324878         1.000333
 C         4.276584        -0.390142         1.457723
 C         4.769039         0.603529         0.378578
 C         3.942179         0.908182        -0.698467
 C         2.427504         0.862946        -0.755864
 O         1.822892        -0.347597        -1.298618
 H         0.010063         0.691096         1.487269
 H        -0.264958         1.335910        -0.122085
 H        -0.513309        -0.352807         0.126296
 H         1.737938        -0.586932         2.099569
 H         1.468205        -1.859466         0.814671
 H         3.932362         0.164326         2.340021
 H         5.169450        -0.915675         1.969143
 H         5.807615         0.732922         0.305699
 H         4.435137         1.391336        -1.638528
 H         1.998859         1.832157        -1.043998
