19
Iteration:  3422charge 0 multiplicity 1
 C         0.005479         0.222521         0.139640
 C         1.460044         0.024235         0.139790
 C         2.052565        -0.830532         1.175992
 O         3.292233        -1.397600         0.741906
 C         4.442361        -0.716461         1.169920
 C         4.727456         0.439289         0.312474
 C         3.868737         1.137160        -0.351935
 C         2.383021         1.080192        -0.436095
 O         2.070790        -0.102999        -1.207258
 H        -0.594979         0.422942        -0.815514
 H        -0.411075        -0.728375         0.563907
 H        -0.336560         1.069857         0.752404
 H         2.092298        -0.326286         2.122613
 H         1.410239        -1.742711         1.243284
 H         4.328644        -0.376999         2.319768
 H         5.284251        -1.523693         1.045656
 H         5.781822         0.608424         0.325118
 H         4.323648         1.872546        -1.006549
 H         1.985714         1.938298        -0.863777
