19
Iteration:  3760
 C        -0.015869         0.283316         0.280610
 C         1.525880         0.047852        -0.015560
 C         2.103097        -0.910516         1.142142
 O         3.351707        -1.478781         0.851034
 C         4.430433        -0.674847         1.335533
 C         4.670015         0.440611         0.336484
 C         3.818696         1.159935        -0.400161
 C         2.414257         1.080910        -0.564892
 O         1.984605        -0.099849        -1.326006
 H        -0.474663         1.075269        -0.397358
 H        -0.474631        -0.591762        -0.009559
 H        -0.082491         0.355506         1.382807
 H         2.116487        -0.302194         2.154716
 H         1.421539        -1.738970         1.214503
 H         4.258806        -0.316190         2.342835
 H         5.339665        -1.448129         1.266586
 H         5.803769         0.620931         0.193147
 H         4.355441         1.889874        -1.043370
 H         1.942496         2.063960        -0.840129
