19
Iteration:  3779charge 0 multiplicity 1
 C        -0.012811         0.178661         0.118074
 C         1.482379         0.067307         0.157799
 C         2.021226        -0.912767         1.145791
 O         3.302898        -1.438145         0.848378
 C         4.462522        -0.655356         1.236469
 C         4.863219         0.473381         0.286191
 C         3.954002         1.159963        -0.411549
 C         2.358890         1.051372        -0.449995
 O         1.909689        -0.069961        -1.226245
 H        -0.193910         0.670010        -0.783285
 H        -0.500669        -0.802890        -0.109799
 H        -0.361881         0.660224         1.039212
 H         2.069120        -0.331098         2.085259
 H         1.304040        -1.722321         1.273658
 H         4.036385        -0.208587         2.199408
 H         5.146243        -1.507466         1.171451
 H         6.000524         0.575450         0.092528
 H         4.426237         1.782762        -1.162083
 H         2.064588         2.143727        -0.709655
