19
Iteration:   451
 C         0.185211         0.476711         0.346662
 C         1.639123         0.040542        -0.010546
 C         2.093845        -0.873193         1.188981
 O         3.349716        -1.545714         1.285647
 C         4.351504        -0.536878         1.336483
 C         4.566689         0.584440         0.298888
 C         3.860486         1.174476        -0.639258
 C         2.404318         0.904129        -0.931704
 O         1.858026        -0.399620        -1.352448
 H         0.254688         0.918630         1.360565
 H        -0.350786         1.108775        -0.453574
 H        -0.313418        -0.485471         0.459224
 H         2.036597        -0.068005         1.995149
 H         1.389631        -1.678576         1.201247
 H         4.291609         0.012107         2.240168
 H         5.321507        -1.219402         1.333773
 H         5.608145         0.883336         0.405292
 H         4.323752         2.114309        -1.150721
 H         1.842507         1.756614        -1.354219
