19
Iteration:  4505charge 0 multiplicity 1
 C         0.173956         0.516036         0.506400
 C         1.532920         0.049027        -0.016159
 C         2.088915        -1.103400         0.849445
 O         3.381869        -1.464853         0.677844
 C         4.329618        -0.639494         1.414459
 C         4.608427         0.600445         0.692050
 C         3.904000         1.131503        -0.355904
 C         2.422003         0.952567        -0.683884
 O         1.879072        -0.219341        -1.451466
 H        -0.293927        -0.224887         1.147313
 H         0.178926         1.375483         1.176781
 H        -0.556860         0.851638        -0.236518
 H         1.846831        -0.795383         1.867186
 H         1.349266        -1.965460         0.883825
 H         4.037922        -0.484457         2.559490
 H         5.273126        -1.204961         1.419877
 H         5.620601         1.015383         0.900625
 H         4.479225         1.825348        -1.075445
 H         2.117258         1.944854        -1.120865
