19
Iteration:  4781
 C        -0.019779         0.228102         0.184871
 C         1.562925         0.051769         0.035908
 C         2.090319        -0.982593         1.056251
 O         3.337505        -1.628367         0.953070
 C         4.439329        -0.723574         1.300908
 C         4.669590         0.403815         0.367475
 C         3.830475         1.136697        -0.331853
 C         2.382934         1.194637        -0.555343
 O         2.016967         0.116045        -1.387409
 H        -0.322466        -0.085870         1.152917
 H        -0.542448         1.244008         0.257622
 H        -0.429196        -0.298034        -0.680866
 H         2.051888        -0.359827         1.930457
 H         1.318965        -1.742650         0.970129
 H         4.309569        -0.414665         2.355189
 H         5.427642        -1.246226         1.289980
 H         5.767738         0.670321         0.508381
 H         4.386167         1.984288        -0.774796
 H         1.839679         2.215385        -0.723218
