19
Iteration:  2229
 C        -0.017790         0.435240         0.194985
 C         1.545554        -0.013901         0.137004
 C         2.053067        -1.038258         1.137592
 O         3.395800        -1.356542         1.041369
 C         4.210806        -0.278109         1.398151
 C         4.816548         0.418131         0.069160
 C         3.912003         0.985673        -0.640084
 C         2.438577         0.939009        -0.505519
 O         1.991985        -0.258323        -1.195244
 H        -0.257853         0.870634         1.246677
 H        -0.112431         1.135605        -0.652847
 H        -0.541821        -0.609622         0.058074
 H         1.770393        -0.710556         2.214414
 H         1.555779        -2.023222         0.925291
 H         3.657678         0.464918         2.083174
 H         5.028026        -0.622628         1.976747
 H         5.921082         0.217539        -0.207867
 H         4.255899         1.292843        -1.671035
 H         1.966570         1.923387        -0.958051
