19
Iteration:  2021charge 0 multiplicity 1
 C        -0.035125         0.172053         0.114729
 C         1.455094         0.077515        -0.010866
 C         2.114533        -0.647122         1.247149
 O         3.353942        -1.353381         1.178122
 C         4.564677        -0.715246         1.293876
 C         4.707537         0.387098         0.284908
 C         3.844500         1.088760        -0.509146
 C         2.360070         1.042205        -0.699955
 O         1.942305        -0.238872        -1.301004
 H        -0.499130         0.491995         1.127361
 H        -0.439861         0.767340        -0.697915
 H        -0.445343        -0.759256        -0.034306
 H         2.335112         0.180749         1.982461
 H         1.291045        -1.243069         1.701647
 H         4.542355        -0.239225         2.273430
 H         5.330336        -1.491308         1.285930
 H         5.702240         0.598426         0.030707
 H         4.327504         1.742784        -1.214035
 H         1.926245         2.038237        -1.091459
