19
Iteration:  4292
 C         0.160395         0.473850         0.309048
 C         1.559702         0.020868        -0.013351
 C         2.137853        -0.903220         0.965512
 O         3.344322        -1.488644         0.693855
 C         4.441965        -0.792813         1.230096
 C         4.571080         0.599218         0.704059
 C         3.823201         1.182286        -0.282094
 C         2.422864         0.997359        -0.640215
 O         1.851718        -0.262082        -1.343014
 H        -0.261446        -0.176531         1.130264
 H        -0.078025         1.528031         0.745341
 H        -0.271506         0.405760        -0.658406
 H         2.061475        -0.431242         2.002518
 H         1.419398        -1.675623         1.178138
 H         4.393299        -0.773079         2.275732
 H         5.382904        -1.397687         0.884963
 H         5.384841         1.075297         1.184084
 H         4.322499         2.158098        -0.570972
 H         2.047264         1.836186        -1.036028
