19
Iteration:  2506charge 0 multiplicity 1
 C         0.016326         0.438464         0.116565
 C         1.454378         0.043316         0.128132
 C         2.104733        -0.746040         1.235918
 O         3.335597        -1.382794         0.750138
 C         4.506634        -0.707403         1.240144
 C         4.694223         0.566234         0.453869
 C         3.841468         1.181749        -0.434432
 C         2.421248         0.857891        -0.735608
 O         1.921411        -0.427803        -1.126080
 H        -0.603418        -0.255198        -0.732986
 H        -0.442703         0.230136         1.116041
 H         0.058940         1.531108        -0.002222
 H         2.364247        -0.128939         2.101248
 H         1.420955        -1.549794         1.593100
 H         4.649819        -0.731239         2.446060
 H         5.242774        -1.384604         0.869980
 H         5.436698         1.225751         0.776962
 H         4.258259         2.118013        -0.894714
 H         1.977425         1.769133        -1.275612
