19
Iteration:  2605
 C         0.023752         0.399013         0.153178
 C         1.525771         0.003740         0.136057
 C         2.047589        -1.090292         1.155114
 O         3.345432        -1.415239         0.905246
 C         4.316275        -0.447342         1.282268
 C         4.793811         0.408372         0.248527
 C         3.914109         1.143579        -0.480015
 C         2.413937         1.001748        -0.527177
 O         1.946020        -0.188974        -1.218804
 H        -0.273455         0.051367         1.202746
 H        -0.170321         1.382874        -0.077540
 H        -0.510459        -0.155678        -0.621175
 H         1.948478        -0.774396         2.222672
 H         1.458277        -1.999659         0.953127
 H         4.110340         0.100898         2.164909
 H         5.085816        -1.200770         1.520383
 H         5.789884         0.840974         0.260069
 H         4.324887         1.827309        -1.270066
 H         2.097685         2.042072        -0.910948
