19
Iteration:  1176charge 0 multiplicity 1
 C         0.125048         0.593610         0.247740
 C         1.513435         0.003931         0.132780
 C         1.937663        -0.936259         1.233749
 O         3.239289        -1.460100         1.011884
 C         4.357910        -0.508479         1.246194
 C         4.664636         0.645039         0.317346
 C         3.900347         1.290394        -0.581477
 C         2.449928         0.771594        -0.821159
 O         2.119159        -0.530412        -1.182603
 H         0.089855         1.217210         1.107908
 H        -0.271434         1.084136        -0.633662
 H        -0.533736        -0.298373         0.472836
 H         1.910819        -0.364465         2.215104
 H         1.179558        -1.864322         1.259517
 H         4.366191        -0.259294         2.293709
 H         5.161814        -1.229640         1.171470
 H         5.715236         0.933615         0.399023
 H         4.270012         2.186815        -1.315511
 H         1.937444         1.586040        -1.496379
