19
Iteration:  1384
 C         0.064341         0.367769         0.326312
 C         1.530160         0.042033         0.061182
 C         2.139618        -0.770057         1.150702
 O         3.341557        -1.277792         0.981793
 C         4.408182        -0.551543         1.486411
 C         4.725195         0.545593         0.487810
 C         3.917473         0.945695        -0.597489
 C         2.454968         0.835757        -0.923477
 O         1.758330        -0.347902        -1.415129
 H        -0.022817         1.157141         1.050067
 H        -0.623369         0.490277        -0.497308
 H        -0.368379        -0.595289         0.848200
 H         2.170637        -0.157462         2.137808
 H         1.471038        -1.518394         1.519085
 H         4.128583         0.021581         2.429898
 H         5.309442        -1.148732         1.599382
 H         5.733832         0.981207         0.601998
 H         4.593161         1.478115        -1.352053
 H         2.070647         1.790082        -1.271640
