19
Iteration:  3999charge 0 multiplicity 1
 C         0.051891         0.158246         0.243019
 C         1.567570         0.044215        -0.001968
 C         2.046934        -0.969882         1.092640
 O         3.353036        -1.535039         1.146556
 C         4.435309        -0.679366         1.288650
 C         4.769032         0.376434         0.263049
 C         3.831335         1.139557        -0.391329
 C         2.400594         1.133704        -0.439873
 O         1.891290         0.143369        -1.572730
 H        -0.379378         0.807240        -0.561047
 H        -0.453543        -0.898083         0.274199
 H        -0.076217         0.610959         1.201553
 H         1.795834        -0.257664         1.971540
 H         1.306704        -1.840667         0.951277
 H         4.366461        -0.160601         2.371156
 H         5.230642        -1.343575         1.448615
 H         5.778590         0.414980         0.114877
 H         4.320302         1.955963        -0.904576
 H         1.916400         2.025471        -0.663436
