19
Iteration:  3769
 C         0.003379         0.208448         0.200063
 C         1.494820         0.034263         0.093172
 C         2.061945        -0.874421         1.129734
 O         3.320001        -1.456608         0.840867
 C         4.422400        -0.682216         1.252579
 C         4.780142         0.432426         0.353055
 C         3.915718         1.161093        -0.404418
 C         2.376865         1.102815        -0.480748
 O         1.957374        -0.082589        -1.311629
 H        -0.328215         0.997911        -0.421057
 H        -0.504632        -0.709162         0.041529
 H        -0.429050         0.592530         1.132921
 H         2.068210        -0.332195         2.143743
 H         1.415697        -1.725891         1.267536
 H         4.378240        -0.319760         2.335961
 H         5.380802        -1.263552         1.468603
 H         5.907146         0.593686         0.106579
 H         4.205516         1.734381        -1.273641
 H         1.752231         1.948879        -0.953726
