19
Iteration:  3579charge 0 multiplicity 1
 C         0.061892         0.355321         0.188256
 C         1.509190        -0.031605         0.044647
 C         2.021765        -1.040866         1.108232
 O         3.370688        -1.549754         1.025289
 C         4.393646        -0.599963         1.237703
 C         4.743651         0.391939         0.190484
 C         3.898477         1.254417        -0.373771
 C         2.367502         1.078784        -0.475281
 O         1.958684        -0.030357        -1.323099
 H        -0.186280         0.916370        -0.656653
 H        -0.504274        -0.688501         0.205610
 H        -0.200354         0.948054         1.080919
 H         1.734923        -0.643374         2.064900
 H         1.392404        -1.996246         0.968484
 H         4.294292        -0.202982         2.186312
 H         5.309843        -1.335466         1.300962
 H         5.802967         0.586364         0.097470
 H         4.279422         2.209010        -0.842250
 H         1.802425         2.067771        -0.643376
