19
Iteration:  4970
 C         0.014575         0.400649         0.135892
 C         1.499565         0.075852         0.096613
 C         2.015147        -1.101040         0.972852
 O         3.318514        -1.578262         0.754057
 C         4.393814        -0.614528         1.283504
 C         4.818568         0.548149         0.345547
 C         3.865006         1.280465        -0.294941
 C         2.467042         1.069827        -0.330886
 O         1.970811        -0.178745        -1.247216
 H        -0.380684         0.580782         1.130262
 H        -0.185061         1.243505        -0.440698
 H        -0.544800        -0.434173        -0.338716
 H         1.941214        -0.722046         2.083443
 H         1.418573        -2.013953         0.841332
 H         3.971804        -0.360400         2.315334
 H         5.193885        -1.334749         1.434563
 H         5.839971         0.710987         0.221863
 H         4.211921         1.966407        -1.057807
 H         1.969613         2.037520        -0.761889
