19
Iteration:  3805
 C        -0.132416         0.222695         0.068280
 C         1.452253         0.093652         0.213622
 C         1.984646        -0.979982         1.208413
 O         3.340574        -1.410358         0.865529
 C         4.471273        -0.673470         1.160631
 C         4.789228         0.398755         0.195717
 C         3.968094         1.264556        -0.413024
 C         2.414431         1.068067        -0.451211
 O         2.015605        -0.128100        -1.156933
 H        -0.195852         0.588906        -1.011271
 H        -0.581803        -0.648014         0.057521
 H        -0.555009         0.869811         0.818440
 H         1.888604        -0.593821         2.316564
 H         1.371593        -1.859884         1.056287
 H         4.280943        -0.178773         2.073796
 H         5.305940        -1.470230         1.201639
 H         5.847359         0.627850         0.272115
 H         4.470556         2.089607        -0.946874
 H         2.046817         1.938274        -0.918212
