19
Iteration:  3246
 C         0.042030         0.281114         0.272717
 C         1.541810         0.022473         0.058134
 C         2.037538        -0.952665         1.056693
 O         3.324769        -1.449443         0.843961
 C         4.355189        -0.624693         1.306807
 C         4.790585         0.475606         0.322759
 C         3.921912         1.202146        -0.435989
 C         2.424862         1.028226        -0.526308
 O         1.918995        -0.125756        -1.260517
 H        -0.434575         1.156473        -0.252377
 H        -0.461278        -0.532374        -0.065031
 H        -0.180173         0.271115         1.262000
 H         1.885107        -0.630147         2.095338
 H         1.329964        -1.855833         0.894853
 H         4.051667        -0.297396         2.358880
 H         5.307989        -1.300398         1.448064
 H         5.811370         0.694022         0.264729
 H         4.382613         1.964535        -1.198897
 H         1.987820         2.024888        -0.763516
