19
Iteration:  1165charge 0 multiplicity 1
 C         0.130017         0.459355         0.275921
 C         1.592594         0.070100         0.029684
 C         1.979695        -0.812850         1.225885
 O         3.242837        -1.425015         0.975308
 C         4.333000        -0.568200         1.239013
 C         4.678033         0.631089         0.361527
 C         3.835854         1.207522        -0.527761
 C         2.499786         0.840407        -0.779661
 O         2.039225        -0.558485        -1.200254
 H         0.158060         1.186554         1.051756
 H        -0.269280         0.993775        -0.591320
 H        -0.559810        -0.359700         0.576792
 H         1.948792        -0.213094         2.183498
 H         1.131496        -1.614058         1.385036
 H         4.279904        -0.130894         2.237566
 H         5.215753        -1.207221         1.170687
 H         5.682024         1.041442         0.474746
 H         4.328370         2.032687        -1.247648
 H         1.931194         1.537087        -1.495395
