19
Iteration:   607
 C         0.001059         0.270512         0.133129
 C         1.522580         0.052564        -0.032210
 C         2.143912        -0.647460         1.205200
 O         3.327859        -1.402664         1.177582
 C         4.559032        -0.642257         1.311016
 C         4.659995         0.485272         0.378777
 C         3.818503         1.004343        -0.474641
 C         2.418222         1.006737        -0.780003
 O         1.824656        -0.305453        -1.339967
 H        -0.234655         0.438608         1.242482
 H        -0.353503         1.172258        -0.384387
 H        -0.414426        -0.717544        -0.249637
 H         2.155436         0.152789         1.996775
 H         1.467443        -1.316922         1.694444
 H         4.866975        -0.206073         2.334866
 H         5.465123        -1.413318         1.159946
 H         5.704320         0.783667         0.331609
 H         4.428105         1.677027        -1.166604
 H         1.932384         1.872417        -1.213747
