19
Iteration:  1348charge 0 multiplicity 1
 C         0.081132         0.493664         0.298681
 C         1.585105         0.057262         0.028176
 C         2.008269        -0.945432         1.113791
 O         3.360287        -1.363739         1.057121
 C         4.303755        -0.420283         1.354566
 C         4.748245         0.548182         0.322439
 C         3.933130         1.058001        -0.606095
 C         2.442633         0.831935        -0.773466
 O         1.900139        -0.448911        -1.247592
 H        -0.006440         0.891687         1.345893
 H        -0.291505         1.309759        -0.341905
 H        -0.592810        -0.426073         0.376706
 H         1.795748        -0.312951         2.060801
 H         1.495648        -1.878657         0.942533
 H         3.958185         0.158733         2.245264
 H         5.173363        -1.087460         1.814738
 H         5.770716         0.982833         0.369087
 H         4.287807         1.668252        -1.446545
 H         1.964232         1.680494        -1.137182
