19
Iteration:  1581
 C         0.056438         0.487503         0.089642
 C         1.528871         0.109120         0.130290
 C         2.011198        -0.815613         1.329920
 O         3.187048        -1.475333         1.089009
 C         4.414423        -0.625230         1.069908
 C         4.689925         0.577815         0.220043
 C         3.831782         1.332033        -0.522019
 C         2.451109         0.841109        -0.807453
 O         2.132234        -0.528456        -1.036149
 H        -0.119965         0.998052         1.008697
 H        -0.419581         0.921510        -0.817290
 H        -0.530958        -0.527315         0.147627
 H         2.148706        -0.251103         2.260653
 H         1.223452        -1.569952         1.448795
 H         4.652587        -0.123661         2.073013
 H         5.304613        -1.369094         1.098065
 H         5.714118         0.975787         0.308142
 H         4.102010         2.223334        -0.930887
 H         1.958044         1.365946        -1.515875
