19
Iteration:  4139
 C         0.086355         0.371207         0.346523
 C         1.545398         0.064735         0.005112
 C         2.079876        -0.978539         0.961035
 O         3.372995        -1.609451         0.966288
 C         4.403876        -0.592437         1.411378
 C         4.724780         0.611384         0.547068
 C         3.927011         1.083629        -0.448500
 C         2.480774         0.986964        -0.650450
 O         1.738813        -0.073046        -1.491554
 H        -0.588262         0.585582        -0.455748
 H        -0.261856        -0.549326         0.948463
 H        -0.012864         1.155334         1.106543
 H         1.841779        -0.722300         1.973368
 H         1.438940        -1.879660         0.577418
 H         4.226389        -0.273091         2.463301
 H         5.397831        -1.141241         1.411268
 H         5.750380         0.784633         0.516398
 H         4.388709         1.864488        -1.083201
 H         1.995596         2.006469        -1.086561
