19
Iteration:  2659charge 0 multiplicity 1
 C         0.083380         0.311414         0.387571
 C         1.542791         0.025176         0.085777
 C         2.022795        -1.057827         1.004201
 O         3.385330        -1.477169         0.932895
 C         4.345166        -0.522201         1.413661
 C         4.719097         0.515567         0.363152
 C         3.952212         1.069773        -0.549078
 C         2.438547         0.949651        -0.628515
 O         1.858014        -0.030460        -1.423123
 H        -0.150686         1.196842         1.023032
 H        -0.342111         0.463780        -0.541333
 H        -0.266872        -0.503344         0.887184
 H         1.841620        -0.708320         2.081131
 H         1.420456        -1.999328         0.890688
 H         3.953350         0.048645         2.304864
 H         5.124791        -1.235214         1.903708
 H         5.786558         0.813003         0.382387
 H         4.319832         1.943099        -1.112874
 H         2.118669         2.079210        -0.866947
