19
Iteration:  1310
 C         0.132829         0.596817         0.096190
 C         1.536565        -0.053073         0.121578
 C         2.006931        -1.055934         1.178157
 O         3.432999        -1.452131         1.193581
 C         4.303336        -0.388357         1.344816
 C         4.735441         0.525564         0.134311
 C         3.864471         1.092145        -0.617937
 C         2.404241         0.927315        -0.624569
 O         1.926137        -0.380301        -1.230164
 H        -0.196381         0.832595         1.119146
 H         0.109599         1.491614        -0.537522
 H        -0.591520        -0.108530        -0.296532
 H         1.741896        -0.775847         2.181611
 H         1.380092        -2.016459         1.106591
 H         3.927323         0.254092         2.120906
 H         5.233687        -0.769617         1.612627
 H         5.778885         0.605226         0.157310
 H         4.257324         1.649261        -1.515435
 H         1.758703         1.886279        -0.904315
