19
Iteration:   310
 C         0.254460         0.539191         0.344727
 C         1.637859         0.051551         0.115293
 C         1.980883        -0.952509         1.186613
 O         3.297214        -1.384338         1.219858
 C         4.416324        -0.569906         1.294446
 C         4.617640         0.527759         0.155496
 C         3.749637         1.215713        -0.576228
 C         2.417849         0.794281        -0.865608
 O         1.958105        -0.431044        -1.327951
 H         0.222604         1.118962         1.284378
 H        -0.112543         1.137514        -0.558915
 H        -0.358306        -0.371760         0.429509
 H         1.744489        -0.607565         2.142497
 H         1.467840        -1.833061         0.900181
 H         4.347949         0.132534         2.115181
 H         5.252510        -1.251943         1.428992
 H         5.634271         0.950765         0.361566
 H         3.960411         2.386806        -0.855685
 H         1.805865         1.573280        -1.332686
