19
Iteration:  4347
 C         0.093467         0.436858         0.120794
 C         1.521592        -0.016642         0.073920
 C         1.992597        -1.032431         1.068500
 O         3.316965        -1.531789         0.761174
 C         4.447757        -0.746823         1.118804
 C         4.651557         0.511028         0.436697
 C         3.818418         1.383380        -0.237730
 C         2.443353         1.049492        -0.502978
 O         2.027559        -0.217666        -1.201646
 H        -0.430523        -0.128394         1.011236
 H         0.234821         1.559945         0.386148
 H        -0.626232         0.357854        -0.712452
 H         1.946439        -0.535076         2.097563
 H         1.361772        -1.825590         0.813504
 H         4.292091        -0.449521         2.202362
 H         5.246132        -1.587716         0.921813
 H         5.660477         0.761568         0.636290
 H         4.185341         2.417797        -0.361742
 H         1.940819         1.871026        -0.847431
