19
Iteration:   860charge 0 multiplicity 1
 C         0.008307         0.211940         0.352531
 C         1.519607         0.113458         0.000929
 C         2.113823        -0.756389         1.181898
 O         3.371954        -1.442850         1.100729
 C         4.315771        -0.472774         1.455314
 C         4.721007         0.486082         0.382005
 C         3.994236         0.941647        -0.725766
 C         2.498303         0.991271        -0.781057
 O         1.820655        -0.230953        -1.399947
 H        -0.163476         0.586292         1.391222
 H        -0.655394         0.941808        -0.282066
 H        -0.443533        -0.808692         0.222567
 H         2.082097        -0.004126         1.956880
 H         1.524947        -1.532418         1.547844
 H         4.082796         0.082826         2.451491
 H         5.254116        -1.080594         1.609771
 H         5.764378         0.691552         0.276305
 H         4.362156         1.367997        -1.506014
 H         2.003664         1.826066        -1.234851
