19
Iteration:  3921charge 0 multiplicity 1
 C         0.061949         0.524762         0.226911
 C         1.501417        -0.000707         0.061723
 C         2.092719        -0.904831         1.136018
 O         3.318339        -1.417226         0.627106
 C         4.380279        -0.691118         1.189110
 C         4.759366         0.586835         0.506742
 C         3.865340         1.272662        -0.267196
 C         2.436883         0.867303        -0.578969
 O         1.930499        -0.393608        -1.239221
 H        -0.233874         1.140607        -0.626272
 H        -0.768362        -0.366300         0.071934
 H        -0.197149         0.904248         1.230781
 H         2.279189        -0.414662         2.179655
 H         1.516831        -1.932511         1.405651
 H         4.130550        -0.437655         2.164720
 H         5.206818        -1.369839         1.102299
 H         5.754575         1.062211         0.782924
 H         4.124149         2.199862        -0.737166
 H         1.977570         1.795555        -1.042186
