19
Iteration:  1415charge 0 multiplicity 1
 C        -0.003766         0.516342         0.148964
 C         1.478862        -0.038121         0.023224
 C         2.066227        -0.886811         1.216737
 O         3.357435        -1.385576         1.128408
 C         4.478741        -0.523736         1.299583
 C         4.738570         0.562969         0.338723
 C         3.918234         1.108823        -0.546891
 C         2.373783         0.867136        -0.753524
 O         1.891816        -0.405613        -1.276792
 H         0.185960         1.478016         0.607787
 H        -0.455690         0.534987        -0.828140
 H        -0.621802        -0.195061         0.817065
 H         1.989862        -0.170692         2.099213
 H         1.365361        -1.696776         1.374900
 H         4.510387        -0.169415         2.316658
 H         5.343880        -1.373217         1.351989
 H         5.802901         0.885524         0.375624
 H         4.354957         1.835965        -1.328350
 H         1.871604         1.715962        -1.091031
