19
Iteration:  4230charge 0 multiplicity 1
 C         0.095800         0.298860         0.186804
 C         1.576173         0.063094         0.092612
 C         1.985616        -1.095811         1.107134
 O         3.267772        -1.496115         0.903946
 C         4.400191        -0.664865         1.252700
 C         4.714874         0.465555         0.312301
 C         3.871707         1.291719        -0.354184
 C         2.419256         1.092078        -0.513195
 O         2.016092        -0.079313        -1.274400
 H        -0.437510        -0.608846        -0.218821
 H        -0.255663         0.535531         1.159616
 H        -0.141006         1.171535        -0.467370
 H         1.827209        -0.725218         2.105170
 H         1.285340        -2.011055         0.860791
 H         4.274025        -0.296464         2.366007
 H         5.188106        -1.392437         1.112723
 H         5.821687         0.606034         0.177328
 H         4.228536         1.939328        -1.157004
 H         1.852740         2.060591        -0.976040
