19
Iteration:  2771
 C        -0.038833         0.329603         0.231240
 C         1.496557         0.090558         0.057743
 C         2.067686        -0.951186         1.039415
 O         3.375927        -1.423592         0.778668
 C         4.397884        -0.645336         1.334799
 C         4.805392         0.480554         0.456651
 C         3.903583         1.074818        -0.362586
 C         2.425183         0.968498        -0.584609
 O         1.884020        -0.113840        -1.278131
 H        -0.470083         0.851418        -0.597608
 H        -0.516254        -0.645794         0.324402
 H        -0.226499         0.925463         1.114841
 H         2.049079        -0.490294         2.076479
 H         1.460302        -1.845331         0.956725
 H         4.323153        -0.276833         2.413743
 H         5.340742        -1.309682         1.232854
 H         5.832272         0.797366         0.352695
 H         4.290207         1.892223        -0.980038
 H         2.013687         2.006139        -0.938214
