19
Iteration:  4400charge 0 multiplicity 1
 C         0.016176         0.028261         0.174761
 C         1.522435         0.087794        -0.035129
 C         2.037356        -0.924406         1.074537
 O         3.330460        -1.492041         0.919522
 C         4.439035        -0.810949         1.304232
 C         4.776735         0.330147         0.374201
 C         3.947229         1.163373        -0.291030
 C         2.447987         1.269864        -0.510290
 O         1.839208         0.154606        -1.387140
 H        -0.462314        -0.787507         0.793609
 H        -0.349885         1.065925         0.573089
 H        -0.497702        -0.121655        -0.749392
 H         2.064849        -0.108272         1.798352
 H         1.328040        -1.670911         1.191006
 H         4.530191        -0.531663         2.413922
 H         5.195458        -1.704947         1.312080
 H         5.784769         0.683007         0.510134
 H         4.369906         2.040171        -0.818929
 H         2.023159         2.289929        -0.603859
