19
Iteration:   960charge 0 multiplicity 1
 C         0.150485         0.351569         0.252831
 C         1.571716         0.028945        -0.038013
 C         2.108526        -0.657150         1.253827
 O         3.260793        -1.438289         0.997169
 C         4.375569        -0.637116         1.326151
 C         4.677153         0.556786         0.432744
 C         3.838466         1.151014        -0.531156
 C         2.404625         0.887473        -0.871249
 O         1.933726        -0.439875        -1.262362
 H        -0.020177         1.280728         0.983212
 H        -0.344080         0.576465        -0.703359
 H        -0.485546        -0.495086         0.743487
 H         2.179231         0.137282         2.007665
 H         1.444709        -1.310605         1.758871
 H         4.525187        -0.302133         2.390405
 H         5.325232        -1.324211         1.209046
 H         5.669252         1.063594         0.584712
 H         4.194514         2.036372        -1.133062
 H         1.823554         1.670712        -1.462698
