19
Iteration:  2477
 C        -0.020806         0.413100         0.035184
 C         1.436193         0.048887         0.108529
 C         2.065911        -0.769716         1.345527
 O         3.296043        -1.440260         0.928256
 C         4.483780        -0.686979         1.109469
 C         4.730073         0.537255         0.293988
 C         3.833291         1.292080        -0.320409
 C         2.444790         0.943053        -0.698916
 O         2.007327        -0.480429        -1.153656
 H        -0.473573         0.347027        -0.866730
 H        -0.485790        -0.236710         0.746585
 H        -0.093897         1.493179         0.426018
 H         2.135944        -0.230744         2.330782
 H         1.261717        -1.506562         1.433141
 H         4.686319        -0.435179         2.117456
 H         5.277829        -1.413417         0.719377
 H         5.810971         0.956889         0.268981
 H         4.315333         2.177992        -0.757463
 H         1.976038         1.709818        -1.246316
