19
Iteration:  4624charge 0 multiplicity 1
 C        -0.021667         0.192978         0.077366
 C         1.537932         0.085065         0.103822
 C         2.043466        -0.998727         1.193931
 O         3.302385        -1.535303         0.898505
 C         4.361052        -0.638113         1.202192
 C         4.788089         0.383917         0.242292
 C         3.932689         1.220004        -0.404645
 C         2.470802         1.127171        -0.484732
 O         1.975141        -0.021963        -1.219937
 H        -0.471674        -0.142684        -0.915439
 H        -0.585268        -0.333175         0.927893
 H        -0.264706         1.270877         0.321217
 H         1.894197        -0.666646         2.267428
 H         1.324516        -1.771566         1.123454
 H         3.950346         0.016111         2.037633
 H         5.130159        -1.295847         1.766852
 H         5.813235         0.652012         0.172651
 H         4.367504         2.139277        -0.910425
 H         2.004924         2.055815        -0.772540
