19
Iteration:  4854
 C         0.010954         0.494015         0.257647
 C         1.484509         0.010258         0.015753
 C         2.034248        -1.172375         0.943413
 O         3.396894        -1.514488         0.680755
 C         4.368100        -0.660375         1.313324
 C         4.714707         0.533733         0.505413
 C         3.890374         1.262274        -0.358226
 C         2.433630         1.082716        -0.424949
 O         1.996485        -0.176393        -1.233641
 H        -0.248080         1.530343         0.729724
 H        -0.474937         0.675911        -0.791888
 H        -0.638249        -0.312431         0.613759
 H         1.814352        -0.876305         2.002174
 H         1.409776        -2.036922         0.625923
 H         4.066920        -0.399139         2.391729
 H         5.358304        -1.245153         1.496655
 H         5.773123         0.709756         0.411437
 H         4.478620         1.957673        -0.971771
 H         1.879753         1.920882        -0.653838
