19
Iteration:  3759
 C        -0.015763         0.291475         0.286520
 C         1.528232         0.049460        -0.020391
 C         2.104242        -0.914861         1.139603
 O         3.355644        -1.481025         0.854550
 C         4.434180        -0.675477         1.339647
 C         4.659594         0.441852         0.335545
 C         3.815075         1.162130        -0.400508
 C         2.413646         1.075891        -0.573632
 O         1.985860        -0.102200        -1.327256
 H        -0.469789         1.053944        -0.357231
 H        -0.476384        -0.580389        -0.022742
 H        -0.046366         0.345842         1.380818
 H         2.120663        -0.304686         2.145555
 H         1.415259        -1.734378         1.215843
 H         4.223454        -0.309368         2.356229
 H         5.316963        -1.456563         1.241669
 H         5.800175         0.634971         0.197140
 H         4.363692         1.896149        -1.001709
 H         1.963373         2.097462        -0.839527
