19
Iteration:   196charge 0 multiplicity 1
 C         0.147343         0.350751         0.144607
 C         1.590186         0.026457         0.077337
 C         2.034031        -0.674032         1.358347
 O         3.229018        -1.392887         1.172542
 C         4.498970        -0.700588         1.146536
 C         4.628085         0.509274         0.298151
 C         3.795176         1.204382        -0.599632
 C         2.383279         0.940217        -0.768284
 O         2.017558        -0.426514        -1.220848
 H        -0.209274         0.781499         1.125595
 H        -0.187776         1.020355        -0.673423
 H        -0.538502        -0.517599        -0.066329
 H         2.095092         0.042962         2.156052
 H         1.309221        -1.462576         1.534421
 H         4.914688        -0.534418         2.111587
 H         5.109900        -1.526727         0.566483
 H         5.595928         0.949240         0.319073
 H         4.084508         2.161501        -0.866900
 H         1.901275         1.784736        -1.268232
