19
Iteration:  1702charge 0 multiplicity 1
 C         0.136435         0.608088         0.275190
 C         1.535028        -0.032515         0.103725
 C         2.045869        -1.089478         1.133136
 O         3.356773        -1.502378         1.027001
 C         4.320687        -0.340691         1.322364
 C         4.690946         0.568130         0.281223
 C         3.889611         1.101693        -0.620581
 C         2.409426         0.919800        -0.666676
 O         1.958934        -0.445109        -1.229732
 H         0.249106         1.586895         0.817772
 H        -0.270741         0.961278        -0.753459
 H        -0.803141         0.058293         0.664538
 H         1.738257        -0.645696         2.135232
 H         1.401661        -1.944434         0.813905
 H         3.936597         0.115628         2.204663
 H         5.259973        -0.711438         1.786439
 H         5.799648         0.915167         0.235985
 H         4.267623         1.745250        -1.376408
 H         1.983430         1.714995        -1.180541
