19
Iteration:  3067charge 0 multiplicity 1
 C         0.210953         0.557780         0.414828
 C         1.604946         0.029243         0.037499
 C         2.071147        -1.144850         0.896444
 O         3.408073        -1.551634         0.889831
 C         4.344605        -0.622482         1.356788
 C         4.630925         0.525834         0.488662
 C         3.819136         1.264095        -0.377195
 C         2.426326         0.969423        -0.716739
 O         1.812574        -0.219740        -1.391283
 H        -0.144205         1.118622        -0.337810
 H        -0.442473        -0.230657         0.674802
 H         0.288542         1.166630         1.299644
 H         1.797897        -0.977130         2.007042
 H         1.375242        -1.982876         0.469203
 H         4.133130        -0.210904         2.348417
 H         5.346283        -1.117633         1.465728
 H         5.592471         1.028757         0.664623
 H         4.274291         2.097764        -0.930263
 H         1.896447         1.966563        -0.811623
