19
Iteration:  4937charge 0 multiplicity 1
 C         0.156141         0.473471         0.354705
 C         1.565871         0.009722         0.049146
 C         2.058192        -1.129844         1.018053
 O         3.350903        -1.485565         0.757856
 C         4.385088        -0.747446         1.371627
 C         4.584538         0.535264         0.570679
 C         3.829858         1.248959        -0.324821
 C         2.466508         0.984411        -0.723122
 O         1.915176        -0.103964        -1.453011
 H         0.303100         0.936443         1.306382
 H        -0.228232         1.132874        -0.337123
 H        -0.485629        -0.418766         0.534468
 H         2.015477        -0.860888         2.168886
 H         1.389812        -2.029075         0.876592
 H         4.223346        -0.537721         2.478322
 H         5.362779        -1.183132         1.182738
 H         5.412385         1.122723         0.869361
 H         4.136472         2.219566        -0.674664
 H         2.003869         2.027554        -1.054113
