19
Iteration:  2522charge 0 multiplicity 1
 C         0.000494         0.438799         0.240163
 C         1.496904         0.040070         0.039096
 C         2.162101        -0.784607         1.255715
 O         3.325231        -1.421302         0.825358
 C         4.449648        -0.717868         1.171232
 C         4.675406         0.665307         0.586534
 C         3.887185         1.155558        -0.413903
 C         2.468537         0.888357        -0.752224
 O         1.864267        -0.442294        -1.296454
 H        -0.615760        -0.210771        -0.233625
 H        -0.324736         0.379733         1.288846
 H        -0.334978         1.420151        -0.255356
 H         2.290268        -0.008275         2.061377
 H         1.365309        -1.473658         1.568351
 H         4.386312        -0.399903         2.173689
 H         5.424017        -1.283577         0.976395
 H         5.808413         0.976231         0.662487
 H         4.271118         2.050061        -0.864136
 H         1.957963         1.603083        -1.323815
