19
Iteration:   496charge 0 multiplicity 1
 C         0.047390         0.454787         0.180897
 C         1.438941         0.000506         0.049072
 C         2.012665        -0.839951         1.218791
 O         3.360027        -1.285486         0.886886
 C         4.496796        -0.508766         1.356596
 C         4.849941         0.573317         0.378569
 C         3.918861         1.065617        -0.501785
 C         2.441957         0.814123        -0.648374
 O         1.765167        -0.470140        -1.243800
 H        -0.098327         1.435563         0.760208
 H        -0.332730         0.673191        -0.826682
 H        -0.642303        -0.328648         0.618572
 H         2.062806        -0.125098         2.076398
 H         1.443067        -1.741986         1.273653
 H         4.414955        -0.207620         2.366786
 H         5.331237        -1.372057         1.289219
 H         5.848936         0.944470         0.316070
 H         4.360229         1.845456        -1.342280
 H         2.071014         1.717183        -1.183813
