19
Iteration:  4379charge 0 multiplicity 1
 C        -0.035148         0.174976         0.126246
 C         1.481602         0.115770         0.111675
 C         2.077469        -0.878746         1.078549
 O         3.318221        -1.640647         0.906311
 C         4.490459        -0.781483         1.215886
 C         4.696620         0.453978         0.455192
 C         3.911006         1.172947        -0.291402
 C         2.396353         1.110839        -0.494265
 O         1.978848         0.125670        -1.428879
 H        -0.480703        -0.620677         0.851937
 H        -0.460601         1.187763         0.563064
 H        -0.552028        -0.066523        -0.797809
 H         2.034928        -0.302392         2.091217
 H         1.353834        -1.610026         1.122333
 H         4.627903        -0.560780         2.371317
 H         5.454468        -1.491627         1.148014
 H         5.711940         0.700912         0.272539
 H         4.285587         1.970549        -0.951506
 H         1.997823         2.093519        -0.696770
