19
Iteration:  2613
 C        -0.014021         0.345415         0.182674
 C         1.523988         0.023536         0.159119
 C         2.001878        -1.023324         1.108370
 O         3.363026        -1.389328         0.835405
 C         4.344619        -0.449001         1.335352
 C         4.799113         0.425795         0.224947
 C         3.908759         1.095214        -0.459488
 C         2.467478         0.959359        -0.527530
 O         1.961634        -0.167469        -1.219469
 H        -0.485365         0.290024         1.137686
 H        -0.153650         1.398338        -0.104759
 H        -0.499108        -0.350614        -0.392037
 H         1.841341        -0.814656         2.214513
 H         1.438227        -1.993834         0.912084
 H         3.986231         0.145572         2.246314
 H         5.192508        -1.145371         1.817345
 H         5.836147         0.604567         0.083218
 H         4.327726         1.757557        -1.233393
 H         1.890805         1.969154        -0.778884
