19
Iteration:   855
 C         0.011480         0.197078         0.378970
 C         1.564454         0.163734        -0.021759
 C         2.089839        -0.780776         1.174865
 O         3.340047        -1.424970         1.120485
 C         4.343866        -0.455398         1.422175
 C         4.711132         0.480922         0.410839
 C         3.948248         0.924714        -0.699575
 C         2.482658         0.991151        -0.774641
 O         1.824789        -0.235063        -1.416344
 H        -0.086204         0.437404         1.429117
 H        -0.583424         0.876027        -0.149519
 H        -0.311646        -0.818037         0.280033
 H         2.241484         0.037719         1.961004
 H         1.405786        -1.699194         1.461873
 H         4.051294         0.121930         2.311554
 H         5.195627        -1.070585         1.610035
 H         5.828965         0.617657         0.324303
 H         4.632618         1.439104        -1.700049
 H         2.109040         1.836334        -1.446652
