19
Iteration:  4143charge 0 multiplicity 1
 C         0.073224         0.349110         0.362407
 C         1.531425         0.053750        -0.009852
 C         2.061621        -0.976971         0.967311
 O         3.372502        -1.584608         0.962643
 C         4.417782        -0.598752         1.377644
 C         4.737758         0.603234         0.528120
 C         3.899677         1.062500        -0.464134
 C         2.467807         1.012209        -0.621900
 O         1.795356        -0.066384        -1.464528
 H        -0.605788         0.559286        -0.538565
 H        -0.211103        -0.503121         0.921547
 H        -0.148764         1.229534         0.963037
 H         1.729649        -0.709086         1.996707
 H         1.411616        -1.866689         0.622859
 H         4.270035        -0.256917         2.367029
 H         5.297351        -1.158283         1.550372
 H         5.855769         0.719004         0.567116
 H         4.414186         1.812075        -1.120536
 H         1.974364         2.003834        -0.941339
