19
Iteration:  2658charge 0 multiplicity 1
 C         0.072806         0.308672         0.389295
 C         1.547573         0.027198         0.083129
 C         2.019467        -1.054211         1.012564
 O         3.386599        -1.469000         0.926399
 C         4.347473        -0.518038         1.405090
 C         4.716962         0.506712         0.361045
 C         3.957396         1.064518        -0.540483
 C         2.439488         0.948813        -0.629523
 O         1.861088        -0.028174        -1.416035
 H        -0.131086         1.169271         1.044437
 H        -0.346131         0.443099        -0.571461
 H        -0.303900        -0.514802         0.852112
 H         1.831494        -0.701530         2.079877
 H         1.420659        -2.007495         0.877647
 H         3.931351         0.047357         2.305812
 H         5.142055        -1.219135         1.920416
 H         5.765537         0.808788         0.367578
 H         4.311288         1.933931        -1.128524
 H         2.149044         2.066960        -0.857250
