19
Iteration:  2956charge 0 multiplicity 1
 C         0.150603         0.387990         0.229592
 C         1.573815         0.003106         0.023389
 C         1.995230        -0.936550         1.195391
 O         3.276985        -1.580282         1.001424
 C         4.466578        -0.758055         1.101798
 C         4.601429         0.561915         0.363327
 C         3.837117         1.365971        -0.366831
 C         2.385774         1.125708        -0.590725
 O         2.020768        -0.274170        -1.306620
 H        -0.033203         1.265793        -0.306256
 H        -0.380855        -0.391507        -0.223332
 H        -0.205878         0.494994         1.212422
 H         1.973398        -0.336857         2.161599
 H         1.249233        -1.798296         1.169987
 H         4.621715        -0.581576         2.165154
 H         5.233455        -1.451666         0.741389
 H         5.601280         0.832835         0.594059
 H         4.274111         2.274933        -0.935926
 H         1.722143         1.831054        -1.124527
