19
Iteration:   590
 C         0.102701         0.296062         0.187258
 C         1.517813        -0.024114        -0.064957
 C         2.090983        -0.698565         1.232844
 O         3.359164        -1.390535         1.349795
 C         4.589907        -0.729596         1.360756
 C         4.676560         0.495117         0.312266
 C         3.849627         1.124984        -0.523599
 C         2.295947         0.973098        -0.801339
 O         1.820019        -0.257611        -1.479136
 H        -0.097401         0.643179         1.152923
 H        -0.224131         1.139457        -0.484770
 H        -0.585760        -0.464833        -0.002376
 H         2.184114         0.091768         2.001462
 H         1.363205        -1.547794         1.478514
 H         4.801571        -0.539790         2.401818
 H         5.318823        -1.388996         1.064845
 H         5.739150         0.858509         0.347260
 H         4.237078         1.941181        -1.038020
 H         1.854441         1.863190        -1.247161
