19
Iteration:   928charge 0 multiplicity 1
 C         0.077532         0.558635         0.152934
 C         1.506141         0.046401         0.130571
 C         1.940835        -0.941725         1.275659
 O         3.323558        -1.481794         1.060971
 C         4.367942        -0.531654         1.213955
 C         4.690554         0.616826         0.229953
 C         3.882882         1.199224        -0.583417
 C         2.427892         0.890139        -0.812989
 O         2.101452        -0.496354        -1.075480
 H        -0.015466         1.456136         0.906089
 H        -0.204052         1.004358        -0.805027
 H        -0.648170        -0.312234         0.349823
 H         1.905850        -0.598912         2.309070
 H         1.345686        -1.810585         1.108339
 H         4.247192        -0.130455         2.307309
 H         5.258714        -1.301648         1.150173
 H         5.701438         1.096871         0.357617
 H         4.054031         2.082017        -1.250346
 H         1.781604         1.571875        -1.430682
