19
Iteration:  4527
 C         0.179084         0.378707         0.398458
 C         1.568350         0.057168        -0.040747
 C         2.094634        -1.026029         0.940861
 O         3.409018        -1.466682         0.825870
 C         4.384769        -0.697501         1.430082
 C         4.633288         0.585030         0.658323
 C         3.896230         1.037209        -0.430445
 C         2.454823         0.939177        -0.739154
 O         1.748503        -0.039118        -1.467058
 H        -0.394803        -0.475858         0.714005
 H         0.197964         0.896824         1.378076
 H        -0.394234         1.072628        -0.218031
 H         1.827097        -0.647814         1.917241
 H         1.353921        -1.873244         0.905968
 H         4.023991        -0.513462         2.510007
 H         5.262496        -1.328337         1.600235
 H         5.583165         1.130608         0.736934
 H         4.296088         2.014922        -0.879385
 H         2.134921         2.005087        -0.992477
