19
Iteration:  4654charge 0 multiplicity 1
 C         0.033792         0.284395         0.291348
 C         1.535247         0.061737        -0.034574
 C         2.024803        -0.916278         1.024714
 O         3.329092        -1.511770         0.932844
 C         4.545046        -0.746243         1.293590
 C         4.669866         0.549147         0.532161
 C         3.835242         1.161793        -0.310192
 C         2.426513         1.035091        -0.611250
 O         1.929136        -0.090358        -1.430321
 H        -0.687047         0.142662        -0.531724
 H        -0.248100         0.007200         1.238856
 H        -0.254380         1.383354         0.402624
 H         1.920582        -0.463870         2.014855
 H         1.275687        -1.712066         0.992805
 H         4.441379        -0.471310         2.351871
 H         5.337649        -1.433711         0.957121
 H         5.763809         0.840278         0.266883
 H         4.394683         1.670911        -1.107787
 H         2.024027         1.989486        -0.817765
