19
Iteration:   942charge 0 multiplicity 1
 C         0.133414         0.465213         0.188679
 C         1.640042         0.088653         0.116866
 C         2.065919        -0.832139         1.277624
 O         3.225933        -1.452702         1.014059
 C         4.353526        -0.583786         1.222952
 C         4.576739         0.620794         0.298522
 C         3.843128         1.232256        -0.579772
 C         2.439895         0.837274        -0.802787
 O         2.031382        -0.510586        -1.175238
 H         0.009189         1.244110         0.942951
 H        -0.262408         0.730902        -0.759918
 H        -0.437838        -0.352308         0.619628
 H         1.998383        -0.269567         2.263828
 H         1.236925        -1.596953         1.270310
 H         4.332102        -0.126513         2.263344
 H         5.291150        -1.167092         1.275753
 H         5.658826         0.825499         0.535734
 H         4.384416         2.030922        -1.078574
 H         1.984671         1.616710        -1.377860
