19
Iteration:  4855charge 0 multiplicity 1
 C         0.022072         0.499935         0.260590
 C         1.485567         0.011704         0.011084
 C         2.033340        -1.175055         0.930991
 O         3.396452        -1.507644         0.676331
 C         4.367222        -0.666068         1.313215
 C         4.700582         0.536929         0.510950
 C         3.890083         1.256832        -0.356090
 C         2.435341         1.078537        -0.422198
 O         1.990260        -0.183136        -1.231929
 H        -0.219543         1.525151         0.735166
 H        -0.448460         0.668412        -0.818621
 H        -0.613261        -0.313327         0.651565
 H         1.802651        -0.873252         2.030400
 H         1.414911        -2.029912         0.668179
 H         4.073863        -0.413111         2.394319
 H         5.389121        -1.203050         1.511404
 H         5.781682         0.739274         0.425125
 H         4.464066         1.971920        -0.985683
 H         1.907968         1.939455        -0.669232
