19
Iteration:  4985
 C        -0.019789         0.307761         0.078208
 C         1.488373        -0.019646         0.141081
 C         1.971992        -1.090234         1.080955
 O         3.357564        -1.410195         0.762067
 C         4.392884        -0.669843         1.272882
 C         4.746289         0.369610         0.290131
 C         3.939249         1.232790        -0.310658
 C         2.389041         1.121507        -0.429904
 O         2.052077        -0.021664        -1.168366
 H        -0.374654         0.309463         1.115983
 H        -0.254899         1.285970        -0.449386
 H        -0.491319        -0.437340        -0.506029
 H         1.762081        -1.020198         2.196475
 H         1.358559        -1.999865         0.644554
 H         4.171479        -0.094400         2.171669
 H         5.292277        -1.249413         1.430567
 H         5.863341         0.468030         0.041915
 H         4.320218         2.104359        -0.879026
 H         1.853764         2.001018        -0.694345
