19
Iteration:   821charge 0 multiplicity 1
 C         0.048561         0.405499         0.265620
 C         1.535304         0.006195         0.055872
 C         2.051269        -0.932576         1.138563
 O         3.365144        -1.349624         1.143643
 C         4.400633        -0.455621         1.427739
 C         4.731738         0.440323         0.229483
 C         3.927990         1.082310        -0.637116
 C         2.423209         0.927453        -0.724892
 O         1.857801        -0.340143        -1.328068
 H        -0.123837         0.605639         1.335525
 H        -0.206785         1.230672        -0.299826
 H        -0.600536        -0.394051        -0.080049
 H         1.856104        -0.391409         2.105887
 H         1.278956        -1.749349         1.123588
 H         4.162067         0.170359         2.315700
 H         5.285157        -1.031119         1.747387
 H         5.825096         0.638876         0.248150
 H         4.506642         1.901743        -1.366570
 H         1.971181         1.839082        -1.201042
