19
Iteration:  3081
 C         0.263748         0.662638         0.474836
 C         1.550676        -0.024511        -0.003303
 C         2.082273        -1.187973         0.888115
 O         3.444878        -1.590665         0.887705
 C         4.363431        -0.626505         1.404229
 C         4.569848         0.621165         0.462700
 C         3.787169         1.227461        -0.407838
 C         2.355953         0.945457        -0.716044
 O         1.874716        -0.207875        -1.394053
 H         0.036097         1.485845        -0.217358
 H        -0.583186         0.060544         0.607634
 H         0.486821         1.139838         1.356840
 H         1.598745        -1.129874         1.984978
 H         1.657540        -2.163637         0.517656
 H         4.005346        -0.393234         2.328717
 H         5.289087        -1.232200         1.641972
 H         5.625966         1.033740         0.674512
 H         4.165268         2.192584        -0.670656
 H         1.873279         1.835723        -1.325502
