19
Iteration:  2216
 C         0.081741         0.418850         0.250232
 C         1.518323        -0.040289         0.092735
 C         1.988333        -1.058983         1.116133
 O         3.400487        -1.457503         1.144831
 C         4.311165        -0.249655         1.322005
 C         4.816271         0.379139         0.144035
 C         3.937023         1.083729        -0.657849
 C         2.462485         0.986977        -0.548818
 O         1.930358        -0.281122        -1.245044
 H        -0.300245         1.020443         1.060739
 H        -0.213892         0.941962        -0.654221
 H        -0.782317        -0.473629         0.105012
 H         1.746766        -0.507319         2.122908
 H         1.356011        -1.980900         1.091629
 H         3.563840         0.609392         1.695690
 H         4.989636        -0.572280         2.106609
 H         5.860208         0.402689        -0.162364
 H         4.189368         1.691851        -1.542944
 H         1.872012         1.913414        -0.792575
