19
Iteration:  4909
 C         0.141780         0.469258         0.477790
 C         1.486842         0.058842        -0.134983
 C         2.148344        -0.981221         0.803923
 O         3.384736        -1.582441         0.748789
 C         4.352545        -0.734447         1.358391
 C         4.589511         0.642706         0.733639
 C         3.883139         1.197832        -0.261141
 C         2.459137         0.972903        -0.715844
 O         1.841508        -0.220981        -1.400289
 H         0.557170         1.270177         1.201066
 H        -0.622716         0.961201        -0.259001
 H        -0.212004        -0.292412         1.164364
 H         1.951870        -0.796581         1.810453
 H         1.362405        -1.753368         0.636797
 H         4.214229        -0.696015         2.461856
 H         5.414499        -1.022439         1.194590
 H         5.517333         1.206702         1.023116
 H         4.274371         2.078444        -0.809832
 H         2.128579         1.854133        -1.116190
