19
Iteration:  4103
 C         0.245462         0.567854         0.429901
 C         1.565265         0.021825        -0.005742
 C         2.083223        -1.100935         0.948973
 O         3.414381        -1.525601         0.806500
 C         4.303748        -0.556915         1.407668
 C         4.597373         0.599264         0.566009
 C         3.838475         1.102787        -0.429412
 C         2.408245         0.900961        -0.709108
 O         1.856918        -0.226927        -1.430212
 H         0.028565         1.529228        -0.064974
 H        -0.586789        -0.151886         0.379283
 H         0.470878         0.877287         1.531917
 H         1.789461        -0.842632         2.020029
 H         1.442090        -1.896130         0.724770
 H         3.838905        -0.316141         2.453927
 H         5.264923        -1.150558         1.640565
 H         5.587672         1.190818         0.672565
 H         4.226457         2.026948        -0.808379
 H         2.040857         1.819766        -1.046232
