19
Iteration:   454
 C         0.161156         0.488443         0.342477
 C         1.611676         0.050261        -0.008303
 C         2.082042        -0.879893         1.176389
 O         3.344491        -1.536437         1.283500
 C         4.401676        -0.544206         1.345200
 C         4.592475         0.567413         0.326775
 C         3.847456         1.162797        -0.664295
 C         2.399056         0.913267        -0.929515
 O         1.868798        -0.403036        -1.370916
 H         0.296196         0.921166         1.373118
 H        -0.322439         1.022815        -0.374490
 H        -0.367541        -0.496697         0.533709
 H         2.003752        -0.089782         2.039366
 H         1.354990        -1.688241         1.249584
 H         4.342230         0.019790         2.341558
 H         5.331144        -1.158469         1.296069
 H         5.575934         0.950142         0.462047
 H         4.348627         2.169949        -1.171535
 H         1.820482         1.743309        -1.375993
