19
Iteration:  1726
 C         0.177004         0.648487         0.248627
 C         1.530842        -0.072300         0.100150
 C         2.043924        -1.110021         1.154391
 O         3.433836        -1.417675         0.965217
 C         4.241944        -0.348504         1.440690
 C         4.783347         0.534956         0.218433
 C         3.874798         1.125986        -0.582133
 C         2.484479         0.766163        -0.719460
 O         1.812536        -0.386820        -1.219901
 H        -0.119523         1.341495         1.169589
 H        -0.130157         1.275884        -0.639061
 H        -0.583509        -0.122686         0.169514
 H         1.738463        -0.665485         2.158093
 H         1.530035        -1.982951         0.877315
 H         3.751700         0.204243         2.212761
 H         5.160847        -0.701623         2.090801
 H         5.849247         0.859339         0.193182
 H         4.133137         1.960135        -1.366947
 H         2.041827         1.624976        -1.077550
