19
Iteration:  4910
 C         0.149562         0.471210         0.482056
 C         1.482843         0.054935        -0.129664
 C         2.145923        -0.969962         0.798327
 O         3.378888        -1.583642         0.753132
 C         4.357561        -0.732003         1.355241
 C         4.590388         0.636187         0.742148
 C         3.873744         1.191812        -0.262813
 C         2.454473         0.977766        -0.724147
 O         1.848442        -0.221207        -1.402945
 H         0.557594         1.253064         1.215572
 H        -0.612731         0.961154        -0.289802
 H        -0.219335        -0.329995         1.158495
 H         1.952451        -0.802592         1.844994
 H         1.408576        -1.749245         0.614546
 H         4.187934        -0.700142         2.478238
 H         5.449254        -1.006828         1.165967
 H         5.544205         1.209514         1.013672
 H         4.266193         2.067057        -0.829239
 H         2.115439         1.881964        -1.084517
