19
Iteration:  3727
 C         0.183233         0.441314         0.419108
 C         1.607465         0.005917        -0.026360
 C         2.079468        -1.014784         1.035191
 O         3.327352        -1.614727         0.949066
 C         4.377926        -0.671192         1.240862
 C         4.634579         0.649705         0.482501
 C         3.841379         1.312398        -0.358017
 C         2.473429         0.976204        -0.755141
 O         1.829412        -0.254900        -1.399014
 H        -0.106523         1.620504         0.115978
 H        -0.467380        -0.199824        -0.078450
 H        -0.002547         0.428239         1.544358
 H         1.834629        -0.676412         2.122892
 H         1.362984        -1.784442         0.830112
 H         4.243842        -0.438521         2.272866
 H         5.344954        -1.405736         1.142075
 H         5.651974         1.231031         0.719822
 H         4.191439         2.245516        -0.864337
 H         2.012494         1.962273        -1.032588
