19
Iteration:  2951
 C         0.164556         0.371773         0.257305
 C         1.573585         0.039190         0.009109
 C         2.029900        -0.933396         1.166757
 O         3.270503        -1.539918         0.985657
 C         4.438045        -0.778093         1.098184
 C         4.572043         0.536126         0.408805
 C         3.805006         1.384540        -0.357832
 C         2.444881         1.109112        -0.624300
 O         2.002811        -0.314556        -1.307752
 H         0.026012         1.467548        -0.299605
 H        -0.498721        -0.493525        -0.248935
 H        -0.199048         0.416780         1.382428
 H         1.932006        -0.237777         2.068355
 H         1.347901        -1.772124         1.257284
 H         4.724893        -0.636352         2.184570
 H         5.213925        -1.465275         0.712034
 H         5.635348         1.002408         0.521624
 H         4.213651         2.255124        -0.748902
 H         1.839201         1.851509        -1.130933
