19
Iteration:  2978
 C         0.006949         0.322687         0.106341
 C         1.492932         0.056414         0.137729
 C         2.047665        -1.003913         1.167734
 O         3.306280        -1.569705         1.001452
 C         4.440690        -0.698125         1.153959
 C         4.696691         0.528428         0.246401
 C         3.843760         1.233680        -0.385733
 C         2.457487         1.061824        -0.541833
 O         2.036749        -0.092493        -1.241012
 H        -0.135080         1.047168        -0.647301
 H        -0.579882        -0.544769        -0.038506
 H        -0.306663         0.783958         1.033118
 H         2.004703        -0.389895         2.153220
 H         1.355973        -1.920449         1.174753
 H         4.380365        -0.415124         2.158469
 H         5.218169        -1.451798         1.041209
 H         5.712223         0.772471         0.137857
 H         4.130455         2.224321        -0.923446
 H         1.846913         1.950302        -0.826550
