19
Iteration:  2822charge 0 multiplicity 1
 C         0.134580         0.273560         0.214227
 C         1.651933        -0.011110         0.039406
 C         1.982356        -0.980790         1.171707
 O         3.253193        -1.554179         1.101565
 C         4.400393        -0.779745         1.068836
 C         4.581075         0.436196         0.263098
 C         3.824100         1.401512        -0.327193
 C         2.351906         1.123805        -0.537798
 O         2.099130        -0.083105        -1.335718
 H        -0.225407         0.433502        -0.852174
 H        -0.513073        -0.495287         0.582190
 H         0.019040         1.206279         0.718194
 H         1.879221        -0.322099         2.022725
 H         1.304394        -1.886836         1.212653
 H         4.691550        -0.253276         2.013803
 H         5.232158        -1.431943         0.827597
 H         5.728730         0.705877         0.286225
 H         4.253275         2.203862        -0.817726
 H         1.822684         1.948279        -0.908061
