19
Iteration:  4279charge 0 multiplicity 1
 C         0.119227         0.390752         0.303448
 C         1.545461         0.074410         0.004321
 C         2.109839        -0.904308         1.080600
 O         3.370828        -1.550554         0.751238
 C         4.487086        -0.797372         1.270646
 C         4.613127         0.600086         0.709573
 C         3.852964         1.173680        -0.217027
 C         2.425161         0.964330        -0.742115
 O         1.786396        -0.144080        -1.484141
 H        -0.349400        -0.377253         0.909156
 H         0.164861         1.428811         0.819041
 H        -0.550847         0.487806        -0.557741
 H         2.294053        -0.253410         1.975658
 H         1.436665        -1.660130         1.173566
 H         4.374589        -0.764764         2.341665
 H         5.441371        -1.435632         1.093116
 H         5.631986         1.095271         0.771965
 H         4.178686         2.150001        -0.668199
 H         1.968232         1.893396        -1.018517
