19
Iteration:  4869
 C         0.161902         0.491633         0.254482
 C         1.554440         0.003494         0.126438
 C         2.021835        -1.124694         0.907037
 O         3.388224        -1.471764         0.642613
 C         4.329083        -0.658093         1.328145
 C         4.669936         0.587257         0.580933
 C         3.838253         1.185430        -0.299579
 C         2.447367         0.977934        -0.515751
 O         1.908645        -0.167410        -1.317091
 H         0.331052         1.398374         0.795502
 H        -0.360567         0.625276        -0.739103
 H        -0.471753        -0.136945         0.940347
 H         1.993829        -0.878175         2.070700
 H         1.495295        -2.027992         0.647583
 H         3.945395        -0.444526         2.350204
 H         5.179642        -1.407475         1.278822
 H         5.694158         1.044443         0.760986
 H         4.172176         2.080383        -0.864966
 H         1.943993         1.890569        -0.997215
