19
Iteration:  2625charge 0 multiplicity 1
 C        -0.012283         0.301044         0.254147
 C         1.460203         0.060271         0.137515
 C         1.998472        -1.014591         1.026817
 O         3.376105        -1.363596         0.802769
 C         4.367614        -0.508921         1.431822
 C         4.868922         0.433756         0.309019
 C         3.951476         1.101845        -0.540826
 C         2.422488         0.979111        -0.474795
 O         1.938290        -0.170529        -1.230494
 H        -0.330013         0.484663         1.277024
 H        -0.270394         1.047512        -0.481151
 H        -0.470722        -0.464172        -0.202537
 H         1.807736        -0.558122         2.068282
 H         1.363511        -1.947288         0.855562
 H         3.760500         0.105647         2.134551
 H         5.338632        -1.021767         1.958681
 H         5.836607         0.308264        -0.124695
 H         4.245615         1.800681        -1.374104
 H         1.957521         2.037127        -0.949435
