19
Iteration:  4113
 C         0.236276         0.537093         0.434569
 C         1.585006        -0.063831        -0.019228
 C         2.071317        -1.079671         0.949179
 O         3.410310        -1.506046         0.859187
 C         4.366796        -0.623704         1.436185
 C         4.581801         0.558571         0.572286
 C         3.892595         1.100912        -0.435604
 C         2.430636         0.988949        -0.823768
 O         1.771089        -0.152585        -1.426399
 H        -0.230066         1.247695        -0.286349
 H        -0.526942        -0.253366         0.482147
 H         0.264251         0.913693         1.545673
 H         1.878858        -0.735460         2.035951
 H         1.611309        -1.961837         0.732776
 H         3.949451        -0.046291         2.446856
 H         5.353254        -1.166748         1.674948
 H         5.559037         1.114677         0.960321
 H         4.271164         2.042837        -0.804241
 H         1.938368         1.829538        -1.053361
