19
Iteration:  2258charge 0 multiplicity 1
 C         0.053037         0.370811         0.286687
 C         1.586743         0.036283         0.130768
 C         2.019077        -0.984275         1.123182
 O         3.377181        -1.313246         0.993705
 C         4.319039        -0.339560         1.468485
 C         4.830940         0.466372         0.260610
 C         3.912601         0.937526        -0.682913
 C         2.475202         0.942118        -0.692843
 O         1.800898        -0.270148        -1.226449
 H        -0.318985         0.450446         1.239132
 H        -0.179139         1.062445        -0.490982
 H        -0.389151        -0.541957        -0.290717
 H         1.753001        -0.599202         2.105334
 H         1.490907        -1.920898         0.936394
 H         3.845056         0.303356         2.287764
 H         5.208333        -0.928490         1.848968
 H         5.864505         0.688797         0.011301
 H         4.470231         1.347843        -1.513337
 H         1.992761         1.797577        -1.090963
