19
Iteration:   594
 C         0.102988         0.292816         0.160494
 C         1.523944        -0.014682        -0.080225
 C         2.103576        -0.695138         1.243474
 O         3.369578        -1.392733         1.309999
 C         4.596669        -0.698803         1.385726
 C         4.700082         0.452837         0.358931
 C         3.832084         1.104383        -0.536020
 C         2.288770         1.000662        -0.788138
 O         1.803272        -0.264198        -1.443881
 H        -0.120211         0.566513         1.298330
 H        -0.210912         1.084154        -0.482512
 H        -0.671392        -0.534070        -0.078930
 H         2.149666         0.194798         1.908054
 H         1.320046        -1.448409         1.437673
 H         4.834539        -0.523367         2.505567
 H         5.280727        -1.503550         0.912284
 H         5.688264         0.884850         0.296803
 H         4.262324         2.048414        -1.171199
 H         1.865733         1.905322        -1.368203
