19
Iteration:  1894
 C        -0.034511         0.383846         0.245910
 C         1.482951         0.064855        -0.009171
 C         2.154208        -0.702032         1.195107
 O         3.355485        -1.359616         1.006828
 C         4.465257        -0.635794         1.339891
 C         4.661312         0.591989         0.450625
 C         3.832042         1.038234        -0.559599
 C         2.441261         0.857491        -0.784417
 O         1.923144        -0.424435        -1.312473
 H        -0.025362         1.319681         0.767149
 H        -0.688172         0.691313        -0.608683
 H        -0.500455        -0.349937         1.016319
 H         2.316637         0.053681         1.996765
 H         1.393461        -1.468447         1.483041
 H         4.477295        -0.531759         2.431621
 H         5.383307        -1.292648         1.285323
 H         5.751542         0.960032         0.576114
 H         4.230795         1.771540        -1.181320
 H         2.115555         1.674012        -1.380009
