19
Iteration:  3282charge 0 multiplicity 1
 C        -0.005631         0.474475         0.265972
 C         1.492096         0.057608         0.139330
 C         2.094102        -0.951969         1.050854
 O         3.437769        -1.328618         0.646284
 C         4.468228        -0.702567         1.293110
 C         4.715705         0.603108         0.582376
 C         3.910910         1.096917        -0.349404
 C         2.455989         0.842840        -0.671967
 O         1.778444        -0.286646        -1.302566
 H        -0.193781         1.378116        -0.195422
 H        -0.728620        -0.299019        -0.048091
 H        -0.054576         0.695225         1.300865
 H         2.084565        -0.463546         1.987478
 H         1.546890        -1.896643         1.020214
 H         4.176258        -0.655006         2.468345
 H         5.359475        -1.364554         1.207428
 H         5.672005         1.136458         0.819030
 H         4.264426         1.974820        -0.846848
 H         1.782974         1.765577        -0.907753
