19
Iteration:  2252
 C         0.067513         0.351680         0.255360
 C         1.563778         0.031629         0.138426
 C         1.997511        -1.023052         1.137683
 O         3.360727        -1.286844         0.949779
 C         4.359613        -0.315089         1.484839
 C         4.754990         0.442834         0.221856
 C         3.926822         0.913508        -0.689800
 C         2.443622         0.967219        -0.685840
 O         1.866208        -0.270242        -1.186561
 H        -0.476846         0.577262         1.276187
 H        -0.024047         1.201866        -0.497976
 H        -0.348137        -0.597047        -0.169584
 H         1.721374        -0.701382         2.206797
 H         1.491813        -2.002963         0.933399
 H         3.914041         0.390075         2.246085
 H         5.199735        -0.780181         1.947868
 H         5.881517         0.494502         0.047597
 H         4.473585         1.320112        -1.584553
 H         2.115557         2.061562        -0.924062
