19
Iteration:  1790charge 0 multiplicity 1
 C         0.109934         0.308549         0.347344
 C         1.553188         0.017722        -0.025931
 C         2.099805        -0.854116         1.123589
 O         3.346853        -1.370884         1.175967
 C         4.352634        -0.416433         1.499499
 C         4.826977         0.441474         0.271383
 C         3.929782         0.957150        -0.685504
 C         2.454329         0.919442        -0.770817
 O         1.718181        -0.206950        -1.397577
 H         0.090446         0.408289         1.498244
 H        -0.436641         1.117817        -0.180052
 H        -0.437645        -0.526421        -0.103870
 H         1.818535        -0.395958         2.100523
 H         1.552715        -1.813560         1.198974
 H         3.753916         0.182300         2.244515
 H         5.199139        -0.978553         1.967233
 H         5.902016         0.790426         0.300096
 H         4.526420         1.599724        -1.413425
 H         2.013819         1.848768        -1.144415
