19
Iteration:  3939
 C         0.042812         0.393847         0.153343
 C         1.537297        -0.002280         0.116776
 C         1.973557        -0.985638         1.106766
 O         3.307022        -1.484546         0.764191
 C         4.443267        -0.691854         1.208244
 C         4.709269         0.527396         0.380237
 C         3.879680         1.299482        -0.325980
 C         2.403285         1.009806        -0.577591
 O         2.015548        -0.248718        -1.157038
 H        -0.192385         1.099385        -0.648337
 H        -0.660127        -0.327639         0.161325
 H        -0.113529         1.018991         1.056623
 H         1.973592        -0.614744         2.119238
 H         1.381105        -1.881272         1.188527
 H         4.252002        -0.333748         2.333331
 H         5.387390        -1.325828         1.109885
 H         5.762997         0.860779         0.211452
 H         4.245181         2.203379        -0.869915
 H         1.880016         1.891935        -1.077603
