19
Iteration:  2231charge 0 multiplicity 1
 C        -0.016581         0.417092         0.181668
 C         1.543475         0.000532         0.158671
 C         2.048332        -1.037638         1.148390
 O         3.401097        -1.338700         1.024978
 C         4.207593        -0.271346         1.413579
 C         4.809716         0.410643         0.084905
 C         3.911176         0.973255        -0.658584
 C         2.436829         0.934075        -0.504217
 O         1.993873        -0.249405        -1.195265
 H        -0.178780         0.810428         1.280901
 H        -0.148737         1.139486        -0.673413
 H        -0.539882        -0.485304         0.043917
 H         1.790829        -0.758543         2.187576
 H         1.567996        -1.998611         0.897659
 H         3.714177         0.393757         2.057561
 H         5.056560        -0.684111         1.939986
 H         5.891940         0.205887        -0.186330
 H         4.271929         1.282202        -1.669854
 H         1.920408         1.861232        -0.997581
