19
Iteration:  3268
 C        -0.030332         0.401122         0.307546
 C         1.423295        -0.009856         0.064199
 C         2.081852        -0.990762         1.109569
 O         3.350530        -1.378123         0.653597
 C         4.438775        -0.629693         1.303451
 C         4.824423         0.598355         0.540731
 C         3.961901         1.094763        -0.393239
 C         2.477275         0.902505        -0.607768
 O         1.805382        -0.188945        -1.290856
 H        -0.265994         1.281148        -0.368083
 H        -0.551576        -0.357346        -0.128797
 H        -0.339710         0.442841         1.282558
 H         2.201981        -0.490479         2.127076
 H         1.432441        -1.954333         1.214097
 H         4.229510        -0.347760         2.341012
 H         5.350414        -1.371392         1.320904
 H         5.749632         1.050254         0.669620
 H         4.293427         2.004355        -1.055105
 H         2.221016         1.892298        -1.069428
