19
Iteration:  4575charge 0 multiplicity 1
 C         0.102275         0.375970         0.199602
 C         1.529058         0.022274         0.091681
 C         1.941084        -1.136279         1.031977
 O         3.345132        -1.497850         0.888703
 C         4.372126        -0.526201         1.310654
 C         4.734400         0.393768         0.217703
 C         3.876451         1.194844        -0.401757
 C         2.366497         1.093076        -0.456916
 O         2.083263        -0.087063        -1.234442
 H        -0.428504        -0.217081        -0.532346
 H        -0.453697         0.176901         1.096172
 H        -0.093272         1.423477        -0.009451
 H         1.633847        -0.931985         2.052415
 H         1.223597        -1.979814         0.812721
 H         4.111484        -0.066309         2.355277
 H         5.174102        -1.214538         1.566270
 H         5.774814         0.729412         0.131223
 H         4.297023         1.891648        -1.065157
 H         1.798707         2.013189        -0.749941
