19
Iteration:  3478
 C         0.203291         0.544658         0.341964
 C         1.576399        -0.037494         0.039602
 C         2.050455        -1.011778         1.071211
 O         3.309663        -1.561932         0.913416
 C         4.535397        -0.703864         1.204714
 C         4.591181         0.642009         0.530010
 C         3.788892         1.238097        -0.391324
 C         2.319187         0.963187        -0.732837
 O         1.934492        -0.230536        -1.365501
 H         0.053257         1.474170        -0.222828
 H        -0.732864        -0.097781         0.068870
 H         0.161428         0.557341         1.410482
 H         1.894301        -0.571372         1.998568
 H         1.313266        -1.878059         0.969953
 H         4.710403        -0.726102         2.337012
 H         5.391625        -1.479508         0.884616
 H         5.525412         1.204566         0.849601
 H         4.123098         2.199020        -0.730759
 H         1.819730         1.847095        -1.059077
