19
Iteration:  4734
 C         0.028374         0.506127         0.258725
 C         1.444731         0.012886         0.080322
 C         1.997036        -1.025728         1.050906
 O         3.312477        -1.441191         0.688628
 C         4.379968        -0.768547         1.197190
 C         4.740852         0.627006         0.584760
 C         3.882156         1.222912        -0.312204
 C         2.464866         0.921206        -0.587583
 O         2.035590        -0.234103        -1.305187
 H        -0.544981        -0.271177         0.765759
 H        -0.013007         1.253430         1.061032
 H        -0.332032         0.853517        -0.684896
 H         2.021750        -0.792340         2.109422
 H         1.449188        -1.872033         0.798795
 H         4.359672        -0.512641         2.260369
 H         5.310446        -1.374028         1.120673
 H         5.629236         1.051792         0.889857
 H         4.174264         2.212762        -0.676104
 H         2.066898         1.775955        -1.015539
