19
Iteration:  2859
 C        -0.036756         0.327843         0.137445
 C         1.449688         0.064106         0.115843
 C         2.022705        -0.841785         1.189249
 O         3.325920        -1.476829         0.864592
 C         4.497949        -0.793567         1.021740
 C         4.693920         0.531138         0.412591
 C         3.851699         1.290528        -0.255096
 C         2.425934         1.014580        -0.647171
 O         2.049806        -0.260114        -1.185712
 H        -0.207307         0.833062        -0.736434
 H        -0.633757        -0.547905         0.249368
 H        -0.337954         1.009568         0.914204
 H         2.193525        -0.310498         2.074295
 H         1.329397        -1.669475         1.390259
 H         4.626525        -0.653819         2.024889
 H         5.323997        -1.573874         0.743419
 H         5.635353         0.876845         0.699074
 H         4.268578         2.309333        -0.605976
 H         1.875403         1.874912        -1.268131
