19
Iteration:  2418
 C         0.044628         0.143706         0.185139
 C         1.590400         0.091309        -0.002539
 C         2.112400        -0.607346         1.237054
 O         3.245406        -1.491799         1.197641
 C         4.502282        -0.797967         1.188132
 C         4.650534         0.481646         0.335624
 C         3.876311         1.251093        -0.488070
 C         2.376545         1.021416        -0.787358
 O         1.925813        -0.242949        -1.264910
 H        -0.304859         1.253247        -0.225487
 H        -0.457362        -0.530033        -0.570439
 H        -0.502052        -0.004909         1.063701
 H         2.350618         0.157137         2.026930
 H         1.411404        -1.351021         1.613748
 H         4.715355        -0.507595         2.186993
 H         5.236083        -1.477474         0.954595
 H         5.628940         0.742473         0.220670
 H         4.478604         2.066507        -0.918435
 H         1.808512         1.872068        -1.243057
