19
Iteration:  3630charge 0 multiplicity 1
 C        -0.009344         0.248815         0.339224
 C         1.554639        -0.008483         0.055055
 C         2.031550        -1.021099         1.028938
 O         3.328541        -1.518634         0.940077
 C         4.409597        -0.652712         1.268671
 C         4.686855         0.496200         0.385335
 C         3.901943         1.183635        -0.467614
 C         2.432709         1.094895        -0.564759
 O         1.995478        -0.006364        -1.336222
 H        -0.448235         0.846629        -0.532393
 H        -0.400155        -0.681421         0.578222
 H        -0.057933         1.070176         1.071853
 H         1.707891        -0.520603         1.953553
 H         1.307846        -1.845050         0.955059
 H         4.219014        -0.356830         2.407088
 H         5.181853        -1.325215         1.277208
 H         5.804653         0.759015         0.251023
 H         4.343863         1.821522        -1.273150
 H         2.010639         2.013667        -0.849677
