19
Iteration:  2290
 C         0.063733         0.459010         0.435338
 C         1.546342        -0.073208        -0.050175
 C         2.047394        -0.912297         1.142987
 O         3.398479        -1.429409         1.127588
 C         4.403996        -0.455829         1.446171
 C         4.707957         0.557506         0.332599
 C         3.943177         1.036629        -0.610300
 C         2.457105         0.886019        -0.867488
 O         1.815168        -0.306750        -1.427314
 H        -0.106874         0.674921         1.461329
 H        -0.257463         1.373259        -0.047827
 H        -0.713282        -0.319500         0.236774
 H         1.960051        -0.224482         1.941106
 H         1.357321        -1.718051         1.370326
 H         4.156760        -0.002637         2.338604
 H         5.259206        -1.138826         1.745164
 H         5.626961         1.129430         0.362881
 H         4.321388         1.837326        -1.232799
 H         1.889843         1.656471        -1.296767
