19
Iteration:  3634charge 0 multiplicity 1
 C         0.005531         0.298169         0.349894
 C         1.546022        -0.005142         0.040438
 C         2.012407        -0.993706         1.045024
 O         3.322464        -1.508638         0.889881
 C         4.401628        -0.631602         1.281972
 C         4.733458         0.510145         0.396352
 C         3.898580         1.170048        -0.446330
 C         2.447090         1.045427        -0.571070
 O         1.974658        -0.030179        -1.335891
 H        -0.420577         0.699404        -0.513977
 H        -0.361461        -0.853399         0.505091
 H        -0.089239         1.011927         1.181509
 H         1.653256        -0.525175         2.071343
 H         1.300258        -1.927342         0.887248
 H         4.155964        -0.355193         2.323053
 H         5.341092        -1.324928         1.255232
 H         5.737183         0.796807         0.321960
 H         4.413794         1.829909        -1.199546
 H         1.927982         2.028546        -0.814431
