19
Iteration:  3516charge 0 multiplicity 1
 C         0.079862         0.460590         0.362871
 C         1.496231         0.029247         0.049174
 C         2.089794        -0.906229         1.017439
 O         3.399701        -1.477585         0.670893
 C         4.408366        -0.714572         1.335012
 C         4.788231         0.628687         0.566376
 C         3.902155         1.177433        -0.352549
 C         2.441477         0.885902        -0.739029
 O         1.766230        -0.283172        -1.293017
 H        -0.165940         1.480234         0.037860
 H        -0.556819        -0.165032        -0.144076
 H        -0.155492         0.467900         1.442730
 H         2.131599        -0.454584         2.066817
 H         1.422509        -1.761882         1.056463
 H         4.041397        -0.383500         2.396367
 H         5.344183        -1.336729         1.370187
 H         5.663069         1.113805         0.910753
 H         4.176499         2.152870        -0.814911
 H         1.916439         1.791839        -1.213363
