19
Iteration:  4990
 C        -0.019149         0.254838         0.086045
 C         1.492834        -0.008933         0.180966
 C         1.953600        -1.119330         1.055922
 O         3.323733        -1.371522         0.797986
 C         4.415716        -0.669990         1.254719
 C         4.757745         0.331782         0.264970
 C         3.901407         1.226066        -0.320361
 C         2.412677         1.140014        -0.455942
 O         2.070959         0.026394        -1.169104
 H        -0.456475         0.278501         1.109494
 H        -0.184475         1.207881        -0.400132
 H        -0.566155        -0.503765        -0.638782
 H         1.894167        -0.915978         2.104869
 H         1.527748        -2.020534         0.804850
 H         4.055834        -0.130688         2.182923
 H         5.317686        -1.349730         1.480875
 H         5.791059         0.409005         0.119750
 H         4.378277         2.047183        -0.836825
 H         1.899540         2.130834        -0.741313
