19
Iteration:  2513charge 0 multiplicity 1
 C        -0.031402         0.430308         0.152104
 C         1.513013         0.025437         0.046442
 C         2.137282        -0.750933         1.273105
 O         3.300299        -1.407649         0.767833
 C         4.515919        -0.673416         1.203501
 C         4.647564         0.600183         0.525355
 C         3.910861         1.171477        -0.428387
 C         2.434932         0.885955        -0.741932
 O         1.874132        -0.445663        -1.188481
 H        -0.629804        -0.119151        -0.456749
 H        -0.327020         0.360614         1.205247
 H        -0.125181         1.468864        -0.053969
 H         2.398122        -0.151197         2.159195
 H         1.553480        -1.612870         1.638761
 H         4.479001        -0.669619         2.264795
 H         5.411306        -1.375835         1.027347
 H         5.627051         1.097308         0.756182
 H         4.228619         2.090123        -0.863598
 H         1.995761         1.761150        -1.274761
