19
Iteration:  1298charge 0 multiplicity 1
 C         0.056527         0.454218         0.173430
 C         1.524516         0.038858         0.101951
 C         2.068068        -0.957510         1.153083
 O         3.401556        -1.465144         1.171145
 C         4.338151        -0.350421         1.365085
 C         4.742151         0.424436         0.207430
 C         3.904678         1.054797        -0.654397
 C         2.425113         0.910021        -0.619423
 O         1.896717        -0.321107        -1.252044
 H        -0.303268         0.842164         1.119067
 H         0.014377         1.286134        -0.497884
 H        -0.605625        -0.317532        -0.306005
 H         1.808465        -0.542452         2.107244
 H         1.533596        -1.893005         0.833426
 H         3.939759         0.321271         2.124599
 H         5.088763        -0.838536         1.874889
 H         5.770055         0.617133         0.001536
 H         4.252875         1.838401        -1.437231
 H         1.968353         1.837052        -1.199244
