19
Iteration:  4590
 C         0.005121         0.293134         0.096659
 C         1.565643        -0.000246         0.144738
 C         1.929894        -1.099250         1.092614
 O         3.292821        -1.453965         0.862939
 C         4.291251        -0.568536         1.231362
 C         4.734154         0.384878         0.163430
 C         3.886353         1.260227        -0.423913
 C         2.471960         1.153202        -0.353581
 O         2.134010        -0.124989        -1.122892
 H        -0.550675        -0.114567        -0.843805
 H        -0.387922        -0.113881         1.051881
 H         0.023562         1.452520         0.080124
 H         1.689136        -0.815829         2.181898
 H         1.518339        -1.981071         0.689402
 H         3.957176         0.120452         2.072048
 H         5.288591        -1.133249         1.629348
 H         5.828744         0.275070        -0.148295
 H         4.227857         1.998520        -1.215379
 H         1.915145         1.971383        -0.705618
