19
Iteration:  4824charge 0 multiplicity 1
 C         0.086922         0.241110         0.187615
 C         1.516488         0.066058         0.059490
 C         1.953146        -1.090954         1.002602
 O         3.325550        -1.537257         0.867076
 C         4.391832        -0.642659         1.254751
 C         4.748028         0.393520         0.262811
 C         3.904587         1.231758        -0.271426
 C         2.476511         1.115410        -0.414865
 O         1.966474         0.037826        -1.281451
 H        -0.399947         0.838069         0.939007
 H        -0.317461         0.716793        -0.768898
 H        -0.402143        -0.724181         0.104590
 H         1.770698        -0.636237         2.050300
 H         1.395549        -1.945540         0.747714
 H         4.001792        -0.047208         2.081676
 H         5.164343        -1.389145         1.571104
 H         5.831766         0.668738         0.302185
 H         4.359204         2.152181        -0.685121
 H         1.944548         2.064411        -0.644918
