19
Iteration:  2675charge 0 multiplicity 1
 C         0.176159         0.441047         0.413027
 C         1.622643        -0.002531        -0.035130
 C         2.063786        -1.120872         0.957412
 O         3.390731        -1.591514         1.033967
 C         4.319801        -0.565015         1.432993
 C         4.693679         0.590062         0.406642
 C         3.929667         1.171266        -0.512319
 C         2.394692         1.029084        -0.661947
 O         1.781333        -0.111230        -1.444591
 H         0.301503         1.445827         0.832200
 H        -0.544444         0.208604        -0.469218
 H        -0.357964        -0.234981         1.262035
 H         1.767410        -0.681988         1.909235
 H         1.459778        -1.984854         0.724076
 H         3.982626        -0.253504         2.417115
 H         5.255310        -0.999008         1.546374
 H         5.733119         0.911743         0.476523
 H         4.314383         1.844717        -1.285265
 H         1.876154         1.942194        -0.818132
