19
Iteration:  1997
 C         0.022949         0.217797         0.057787
 C         1.484260         0.109594         0.084713
 C         2.080743        -0.676289         1.371159
 O         3.230538        -1.381338         1.087521
 C         4.441937        -0.655056         1.181890
 C         4.819531         0.463684         0.182207
 C         3.893469         1.225548        -0.486595
 C         2.469913         0.893074        -0.703362
 O         1.928538        -0.358674        -1.183688
 H        -0.393096         0.493493         0.988380
 H        -0.305606         0.920050        -0.697410
 H        -0.471658        -0.779511        -0.116510
 H         2.216503        -0.110309         2.298042
 H         1.204527        -1.380712         1.499546
 H         4.399815        -0.223737         2.214258
 H         5.157702        -1.420076         1.144850
 H         5.804781         0.812534         0.250768
 H         4.155755         2.216719        -0.960347
 H         2.077863         1.841129        -1.289817
