19
Iteration:   302charge 0 multiplicity 1
 C         0.194582         0.561678         0.268598
 C         1.618311         0.061538         0.111274
 C         1.993717        -0.974463         1.195681
 O         3.310192        -1.419915         1.213313
 C         4.437071        -0.539910         1.210528
 C         4.674414         0.592301         0.211832
 C         3.785450         1.179396        -0.558413
 C         2.408624         0.826484        -0.821025
 O         1.916142        -0.481360        -1.286187
 H         0.202078         1.303501         1.188131
 H        -0.010168         1.097088        -0.538515
 H        -0.454507        -0.378877         0.515271
 H         1.607888        -0.632805         2.244783
 H         1.329695        -1.897822         0.899907
 H         4.437025         0.022322         2.183873
 H         5.242360        -1.148136         1.304071
 H         5.640874         1.040164         0.301042
 H         4.010783         2.243640        -0.932934
 H         1.972122         1.747021        -1.377539
