19
Iteration:   892
 C         0.084222         0.480813         0.136931
 C         1.498895         0.002455         0.065742
 C         2.016890        -0.905354         1.243573
 O         3.391776        -1.308356         1.081576
 C         4.421158        -0.471225         1.323686
 C         4.810907         0.466286         0.218425
 C         3.836767         1.059545        -0.509444
 C         2.400359         0.885610        -0.635828
 O         1.855422        -0.403888        -1.306471
 H        -0.179132         0.995393         1.067631
 H        -0.133959         1.097914        -0.843676
 H        -0.571629        -0.413694         0.090607
 H         1.842430        -0.457329         2.213900
 H         1.418072        -1.814317         1.260726
 H         4.363451         0.076340         2.366208
 H         5.327222        -1.080741         1.467623
 H         5.834279         0.721781         0.135240
 H         4.234792         1.690493        -1.173352
 H         2.023471         1.830552        -1.060174
