19
Iteration:  2878
 C        -0.006511         0.373757         0.090627
 C         1.530492         0.063607         0.109071
 C         2.154909        -0.783424         1.250670
 O         3.259728        -1.392737         0.658697
 C         4.528622        -0.811585         1.097891
 C         4.714141         0.593474         0.537060
 C         3.823069         1.204545        -0.235795
 C         2.436261         0.953788        -0.610213
 O         1.903394        -0.348608        -1.219239
 H        -0.292110         1.053832        -0.722204
 H        -0.508678        -0.557108        -0.068801
 H        -0.331469         0.715554         1.043470
 H         2.397720        -0.145074         2.126592
 H         1.295988        -1.375123         1.687536
 H         4.716957        -0.911310         2.317145
 H         5.255834        -1.569242         0.748122
 H         5.718314         1.104401         0.752871
 H         4.016254         2.216402        -0.605870
 H         1.892717         1.669998        -1.147775
