19
Iteration:  3340
 C         0.193613         0.462325         0.362678
 C         1.654150        -0.011969         0.005116
 C         2.026982        -0.994452         1.114154
 O         3.289365        -1.605603         0.874811
 C         4.344284        -0.760189         1.100553
 C         4.559446         0.640532         0.457976
 C         3.765918         1.332902        -0.315667
 C         2.398441         1.005186        -0.688105
 O         2.061200        -0.260955        -1.337299
 H        -0.410205         0.841240        -0.507380
 H        -0.393295        -0.297805         1.017629
 H         0.346012         1.325616         1.159834
 H         1.906540        -0.432657         2.020283
 H         1.384354        -1.824061         1.199241
 H         4.542978        -0.556732         2.296699
 H         5.212491        -1.274271         0.834428
 H         5.498790         1.242620         0.751225
 H         4.088687         2.280773        -0.724457
 H         1.847592         1.929806        -1.058571
