19
Iteration:  4372charge 0 multiplicity 1
 C        -0.023245         0.235322         0.155314
 C         1.509880         0.131563         0.129103
 C         2.013713        -0.949387         1.099294
 O         3.350993        -1.634364         0.884853
 C         4.495218        -0.774005         1.216437
 C         4.722310         0.480284         0.438266
 C         3.829736         1.218558        -0.262683
 C         2.385816         1.111188        -0.514477
 O         2.015181         0.048877        -1.412050
 H        -0.566742        -0.480717         0.806839
 H        -0.208311         1.248660         0.359361
 H        -0.446397         0.066565        -0.893175
 H         2.179069        -0.298714         1.971990
 H         1.201365        -1.752153         1.116257
 H         4.476024        -0.616075         2.280031
 H         5.250488        -1.484458         0.896521
 H         5.797104         0.683956         0.398314
 H         4.246425         1.923144        -0.941235
 H         1.959258         2.113989        -0.654570
