19
Iteration:  1238charge 0 multiplicity 1
 C         0.009670         0.313565         0.275515
 C         1.443116         0.038519        -0.015879
 C         2.084837        -0.836453         1.185070
 O         3.370160        -1.373960         1.042993
 C         4.405681        -0.449793         1.463066
 C         4.802415         0.469599         0.371122
 C         3.974801         0.930120        -0.633520
 C         2.425580         0.907280        -0.749424
 O         1.821661        -0.224001        -1.395149
 H        -0.099878         0.909831         1.229777
 H        -0.499269         0.888384        -0.575070
 H        -0.452930        -0.650068         0.548045
 H         2.019282        -0.187931         2.112567
 H         1.432447        -1.594469         1.532326
 H         4.035039         0.155388         2.357223
 H         5.375668        -1.073062         1.622358
 H         5.828516         0.849567         0.552025
 H         4.476501         1.511483        -1.291181
 H         2.006260         1.754526        -1.173223
