19
Iteration:  2197
 C         0.180258         0.380092         0.278191
 C         1.590075        -0.061319         0.045382
 C         2.057087        -1.046163         1.193550
 O         3.364983        -1.428939         1.230484
 C         4.212232        -0.359693         1.401136
 C         4.746356         0.411183         0.135685
 C         3.909659         1.140706        -0.668749
 C         2.450345         0.936109        -0.727363
 O         1.858984        -0.216850        -1.337775
 H         0.029054         1.162092         1.140811
 H        -0.282042         0.985260        -0.526809
 H        -0.457824        -0.511368         0.524490
 H         1.664618        -0.669297         2.151135
 H         1.510341        -1.989776         0.976493
 H         3.863554         0.277915         2.174865
 H         5.097122        -0.806604         1.784298
 H         5.885401         0.628333         0.038712
 H         4.259696         1.892702        -1.448642
 H         2.042489         2.019028        -0.949915
