19
Iteration:  1698charge 0 multiplicity 1
 C         0.150198         0.601321         0.292361
 C         1.565809        -0.050472         0.056294
 C         2.043175        -1.047048         1.138019
 O         3.351872        -1.477510         1.023460
 C         4.320191        -0.363203         1.355796
 C         4.672308         0.570501         0.251029
 C         3.857448         1.073165        -0.622355
 C         2.434690         0.910904        -0.675299
 O         1.969086        -0.413960        -1.206282
 H         0.176073         1.514324         0.793986
 H        -0.336323         0.765748        -0.661372
 H        -0.691144        -0.006721         0.689304
 H         1.654241        -0.690932         2.081629
 H         1.381313        -1.922677         0.821668
 H         3.946408         0.101312         2.318166
 H         5.225569        -0.855124         1.622510
 H         5.689065         0.889850         0.329727
 H         4.282423         1.748512        -1.351827
 H         1.962955         1.837414        -1.223995
