19
Iteration:  2498charge 0 multiplicity 1
 C         0.047850         0.433623         0.111912
 C         1.455035         0.078436         0.180477
 C         2.092291        -0.767470         1.211871
 O         3.339655        -1.347195         0.780766
 C         4.499387        -0.771412         1.214349
 C         4.713375         0.579499         0.400397
 C         3.786872         1.148533        -0.396827
 C         2.393107         0.844436        -0.720217
 O         1.980088        -0.413474        -1.099670
 H        -0.367000         0.003294        -0.869331
 H        -0.604854         0.110601         0.913712
 H        -0.138085         1.574963        -0.126268
 H         2.234333        -0.056931         2.073971
 H         1.329313        -1.500312         1.491924
 H         4.636323        -0.533056         2.266644
 H         5.295022        -1.409792         0.819215
 H         5.610546         1.247328         0.719700
 H         4.118014         2.105361        -0.875000
 H         1.862387         1.545739        -1.290798
