19
Iteration:  4699charge 0 multiplicity 1
 C         0.222704         0.557783         0.303359
 C         1.587848         0.064161         0.036656
 C         2.125086        -0.980091         1.056170
 O         3.359565        -1.574254         0.677223
 C         4.350419        -0.727463         1.207588
 C         4.594546         0.670578         0.664519
 C         3.806779         1.274051        -0.224214
 C         2.419046         0.915087        -0.719000
 O         1.874797        -0.321569        -1.301718
 H        -0.474955        -0.095867        -0.254730
 H         0.022917         0.709000         1.312954
 H        -0.076930         1.551561        -0.130179
 H         1.985805        -0.699472         2.116855
 H         1.387655        -1.756373         0.940893
 H         4.064731        -0.731621         2.247301
 H         5.263111        -1.339204         1.068540
 H         5.622518         1.022912         0.912992
 H         4.086492         2.209481        -0.748244
 H         2.037756         1.639764        -1.342116
