19
Iteration:  4731
 C         0.048186         0.529957         0.279031
 C         1.453811         0.003545         0.075519
 C         1.998109        -1.019675         1.066741
 O         3.324514        -1.432966         0.664269
 C         4.401278        -0.784050         1.198203
 C         4.686355         0.619045         0.589768
 C         3.873100         1.236188        -0.336615
 C         2.470700         0.905546        -0.582589
 O         2.053375        -0.240893        -1.280808
 H        -0.686374        -0.285930         0.681778
 H        -0.035812         1.214600         1.069427
 H        -0.380575         0.947613        -0.692912
 H         1.977167        -0.739127         2.160739
 H         1.430483        -1.920844         0.677495
 H         4.219780        -0.537762         2.285008
 H         5.314286        -1.373837         1.111247
 H         5.657556         1.090145         0.987513
 H         4.185732         2.226654        -0.723366
 H         2.042600         1.744158        -1.141676
