19
Iteration:  3052charge 0 multiplicity 1
 C         0.164034         0.407871         0.390968
 C         1.540447         0.023458         0.045589
 C         2.013657        -1.083147         0.976288
 O         3.365985        -1.553115         0.833825
 C         4.354712        -0.610121         1.322586
 C         4.715429         0.599971         0.507504
 C         3.925448         1.174225        -0.446380
 C         2.475363         1.025631        -0.626424
 O         1.820507        -0.128073        -1.347781
 H        -0.427500         0.751406        -0.594863
 H        -0.456036        -0.567931         0.662551
 H         0.059892         1.202262         1.254698
 H         1.778821        -0.658603         1.915425
 H         1.469384        -1.989473         0.771115
 H         3.979544        -0.249658         2.441244
 H         5.187706        -1.278850         1.394623
 H         5.751913         0.882462         0.512133
 H         4.380382         2.020703        -1.036529
 H         1.969847         1.805672        -1.104418
