19
Iteration:  4290
 C         0.160124         0.454817         0.305918
 C         1.564664         0.039014        -0.005829
 C         2.136603        -0.906307         0.973333
 O         3.337302        -1.494754         0.707325
 C         4.456247        -0.802378         1.226467
 C         4.574946         0.598207         0.722209
 C         3.816785         1.176951        -0.280758
 C         2.424862         0.988795        -0.649803
 O         1.832352        -0.245847        -1.376107
 H        -0.260457        -0.181110         1.086127
 H        -0.036302         1.512676         0.786940
 H        -0.313104         0.396063        -0.668985
 H         2.112453        -0.425530         2.004266
 H         1.451000        -1.613219         1.208580
 H         4.400994        -0.739280         2.327122
 H         5.441221        -1.384344         0.964704
 H         5.523108         1.114036         1.143846
 H         4.289265         2.159820        -0.594661
 H         2.006742         1.888376        -1.031037
