19
Iteration:  4392
 C        -0.051342         0.095820         0.171986
 C         1.514392         0.086512        -0.070689
 C         2.103806        -0.891725         1.088345
 O         3.317035        -1.519986         0.945291
 C         4.471638        -0.856077         1.286729
 C         4.745206         0.387552         0.407571
 C         3.911110         1.162203        -0.342581
 C         2.434981         1.206845        -0.493297
 O         1.881734         0.177642        -1.374268
 H        -0.227849        -0.841469         0.839268
 H        -0.543499         1.027978         0.549830
 H        -0.428269        -0.123862        -0.881361
 H         2.126399        -0.262748         2.087788
 H         1.415481        -1.706084         1.173305
 H         4.277983        -0.519950         2.386777
 H         5.343333        -1.629681         1.082325
 H         5.776811         0.611240         0.501530
 H         4.432236         1.979106        -0.765221
 H         2.033067         2.136878        -0.652617
