19
Iteration:  2115charge 0 multiplicity 1
 C         0.174595         0.621251         0.245946
 C         1.493927        -0.019649         0.120871
 C         2.012428        -1.003495         1.158241
 O         3.366372        -1.338480         0.794625
 C         4.348476        -0.430579         1.323702
 C         4.693690         0.626098         0.436074
 C         3.892175         1.064629        -0.577054
 C         2.457168         0.839901        -0.673147
 O         1.896214        -0.535129        -1.195344
 H         0.032693         1.211734         1.114488
 H        -0.089970         1.081009        -0.739481
 H        -0.849318        -0.111843         0.354682
 H         1.946286        -0.440349         2.177358
 H         1.520518        -1.980310         1.291307
 H         4.020725        -0.015292         2.283235
 H         5.264044        -1.068176         1.537527
 H         5.723592         0.975312         0.475209
 H         4.312270         1.730650        -1.346143
 H         1.995030         1.679872        -1.115066
