19
Iteration:  3559charge 0 multiplicity 1
 C        -0.039259         0.320502         0.245792
 C         1.489484         0.053397         0.083841
 C         1.983172        -1.037345         1.053439
 O         3.304976        -1.487079         0.848592
 C         4.426179        -0.650847         1.261828
 C         4.777454         0.567144         0.341506
 C         3.918328         1.183633        -0.455246
 C         2.452752         1.058209        -0.461609
 O         2.018746        -0.153001        -1.245970
 H        -0.272736         1.158065        -0.295948
 H        -0.531933        -0.553784         0.043675
 H        -0.091263         0.763172         1.221680
 H         1.866601        -0.627266         2.016128
 H         1.284253        -1.879150         1.025765
 H         4.150206        -0.246021         2.305638
 H         5.343410        -1.426848         1.300421
 H         5.770165         0.817574         0.122504
 H         4.280238         1.769683        -1.322592
 H         1.873274         2.004753        -0.853239
