19
Iteration:  2510charge 0 multiplicity 1
 C        -0.021078         0.423952         0.131974
 C         1.492981         0.029174         0.074334
 C         2.119955        -0.746112         1.258675
 O         3.311910        -1.400011         0.756411
 C         4.516094        -0.675430         1.225926
 C         4.656237         0.575201         0.494027
 C         3.888163         1.179602        -0.433250
 C         2.423806         0.880662        -0.743686
 O         1.890285        -0.439531        -1.158149
 H        -0.598084        -0.174519        -0.546025
 H        -0.356557         0.322968         1.167729
 H        -0.017815         1.588990        -0.013057
 H         2.412575        -0.151863         2.166350
 H         1.536788        -1.595312         1.629067
 H         4.561757        -0.742376         2.290109
 H         5.347961        -1.401303         0.983946
 H         5.608507         1.212494         0.795210
 H         4.246221         2.111706        -0.883224
 H         2.049049         1.721749        -1.223437
