19
Iteration:   941charge 0 multiplicity 1
 C         0.129184         0.473934         0.178173
 C         1.639534         0.092285         0.115491
 C         2.067294        -0.844482         1.282462
 O         3.223539        -1.458148         1.015330
 C         4.348801        -0.574648         1.215911
 C         4.590479         0.611262         0.305985
 C         3.832592         1.235790        -0.591055
 C         2.439893         0.836811        -0.798269
 O         2.038429        -0.510675        -1.167574
 H        -0.006142         1.270774         0.976632
 H        -0.276313         0.749694        -0.753974
 H        -0.475795        -0.355132         0.625485
 H         1.951839        -0.318367         2.264396
 H         1.267235        -1.608351         1.269037
 H         4.357719        -0.093058         2.274656
 H         5.326327        -1.173252         1.272053
 H         5.687369         0.850108         0.532960
 H         4.378866         2.051606        -1.097235
 H         1.968670         1.617526        -1.391149
