19
Iteration:  4130
 C         0.135183         0.397665         0.397705
 C         1.564921         0.096486        -0.024484
 C         2.097196        -1.058479         0.938441
 O         3.412910        -1.566422         0.967989
 C         4.386811        -0.618680         1.466701
 C         4.666458         0.576627         0.552600
 C         3.966834         1.145531        -0.424681
 C         2.462625         0.954005        -0.750593
 O         1.678355        -0.091009        -1.477614
 H        -0.459450         0.723726        -0.491855
 H        -0.423077        -0.508049         0.733126
 H         0.205124         1.102768         1.174767
 H         1.872492        -0.671021         1.914888
 H         1.364059        -2.004805         0.806305
 H         4.135194        -0.410113         2.434896
 H         5.280550        -1.202155         1.374313
 H         5.602773         1.024893         0.587623
 H         4.430056         1.951913        -1.067169
 H         2.114180         2.066772        -1.147560
