19
Iteration:  3405
 C        -0.091668         0.182544         0.081531
 C         1.474544         0.041228         0.101976
 C         2.032533        -0.871482         1.228782
 O         3.319796        -1.357613         0.740746
 C         4.486082        -0.775375         1.238776
 C         4.838711         0.452237         0.306666
 C         3.926802         1.198989        -0.311628
 C         2.447954         1.079293        -0.432718
 O         1.900568        -0.100085        -1.240513
 H        -0.228215         0.144720        -0.970929
 H        -0.657466        -0.653361         0.512232
 H        -0.442878         1.118019         0.604676
 H         2.304089        -0.192294         2.108123
 H         1.382917        -1.723934         1.485894
 H         4.429421        -0.567317         2.240728
 H         5.224414        -1.557203         1.178391
 H         5.952864         0.527102         0.008957
 H         4.214949         1.927032        -1.076531
 H         1.859548         2.093802        -0.616190
