19
Iteration:  4493charge 0 multiplicity 1
 C         0.143929         0.587278         0.462966
 C         1.514227         0.000464        -0.016909
 C         1.994808        -1.151693         0.898064
 O         3.414419        -1.508599         0.655495
 C         4.285174        -0.684245         1.363226
 C         4.660302         0.675841         0.626925
 C         3.894325         1.197522        -0.357320
 C         2.498920         0.950317        -0.690181
 O         1.909928        -0.235871        -1.317270
 H        -0.255815        -0.135095         1.198249
 H         0.501763         1.498142         0.917998
 H        -0.655261         0.703276        -0.339317
 H         1.977561        -0.861626         1.947566
 H         1.475543        -2.060721         0.550724
 H         3.750503        -0.477105         2.405344
 H         5.192801        -1.310221         1.594281
 H         5.677396         1.149118         0.783428
 H         4.264914         2.184287        -0.800498
 H         1.928601         1.784459        -1.085294
