19
Iteration:  4289charge 0 multiplicity 1
 C         0.159141         0.447010         0.306163
 C         1.566656         0.049211        -0.001449
 C         2.136663        -0.905404         0.980100
 O         3.335069        -1.498814         0.713886
 C         4.464827        -0.807494         1.223699
 C         4.577619         0.597963         0.730370
 C         3.816562         1.175745        -0.278185
 C         2.427202         0.982474        -0.655617
 O         1.823048        -0.236807        -1.393177
 H        -0.266265        -0.190079         1.057003
 H        -0.001520         1.482783         0.792232
 H        -0.349707         0.390100        -0.677135
 H         2.146038        -0.417500         1.996199
 H         1.434104        -1.623115         1.223403
 H         4.405295        -0.725935         2.363998
 H         5.447344        -1.365970         1.011206
 H         5.580086         1.129548         1.110491
 H         4.259088         2.147745        -0.605682
 H         1.971547         1.935202        -1.039380
