19
Iteration:  2971
 C         0.033871         0.352317         0.100855
 C         1.562507         0.039232         0.125586
 C         2.043987        -0.982970         1.184574
 O         3.280410        -1.616873         1.020666
 C         4.409240        -0.717461         1.113016
 C         4.713167         0.551645         0.306139
 C         3.815356         1.291236        -0.410760
 C         2.391724         1.031556        -0.580580
 O         2.050828        -0.117382        -1.243472
 H        -0.157625         1.215865        -0.539962
 H        -0.632432        -0.504158        -0.039017
 H        -0.139187         0.666287         1.135802
 H         1.920359        -0.495079         2.117903
 H         1.333195        -1.774009         1.204700
 H         4.586766        -0.378608         2.249753
 H         5.317149        -1.390476         0.926046
 H         5.747280         0.916265         0.168913
 H         4.186002         2.152760        -0.905025
 H         1.847309         2.021818        -0.776834
