19
Iteration:  4340charge 0 multiplicity 1
 C         0.077258         0.464224         0.181995
 C         1.531109         0.048695         0.087822
 C         1.960438        -1.024111         1.011182
 O         3.310780        -1.538924         0.718808
 C         4.401363        -0.746188         1.097909
 C         4.676815         0.579873         0.424783
 C         3.831109         1.379077        -0.176156
 C         2.454865         0.978659        -0.523268
 O         2.062046        -0.301785        -1.193239
 H        -0.406683         0.149926         1.081924
 H         0.182990         1.479638         0.397376
 H        -0.449730         0.459427        -0.801431
 H         1.917921        -0.787347         2.073684
 H         1.217865        -1.931833         1.041407
 H         4.342496        -0.489334         2.152235
 H         5.302610        -1.292900         0.971531
 H         5.689760         0.897931         0.736719
 H         4.107985         2.388492        -0.353235
 H         1.883100         1.879972        -0.926779
