19
Iteration:   952
 C         0.191313         0.386105         0.252566
 C         1.584213         0.050461         0.078724
 C         2.034406        -0.706527         1.246881
 O         3.277377        -1.436590         1.007519
 C         4.345059        -0.617343         1.264304
 C         4.601340         0.551403         0.401411
 C         3.844345         1.231148        -0.573706
 C         2.457138         0.869441        -0.853744
 O         1.975028        -0.484800        -1.227045
 H         0.031013         1.325085         0.857975
 H        -0.179147         0.607856        -0.723082
 H        -0.369469        -0.508983         0.609669
 H         2.252332        -0.053852         2.092246
 H         1.279821        -1.472578         1.523141
 H         4.193309        -0.265187         2.363375
 H         5.238123        -1.325722         1.164996
 H         5.656594         1.037152         0.412599
 H         4.244578         2.061991        -1.173160
 H         1.864818         1.622482        -1.370706
