19
Iteration:   520
 C        -0.016265         0.462323         0.104753
 C         1.477561         0.102568         0.186481
 C         2.113065        -0.882061         1.289695
 O         3.326501        -1.377589         0.813794
 C         4.349393        -0.509862         1.252003
 C         4.774783         0.515508         0.331422
 C         3.908999         1.098738        -0.566116
 C         2.428190         0.819761        -0.734105
 O         1.963071        -0.438534        -1.069893
 H        -0.307051         1.412646         0.638573
 H        -0.331500         0.594297        -0.884604
 H        -0.676182        -0.351869         0.544098
 H         2.364812        -0.233913         2.183396
 H         1.453769        -1.715263         1.351302
 H         4.025333         0.015307         2.124316
 H         5.229755        -1.194726         1.665308
 H         5.778855         0.890191         0.435708
 H         4.341861         2.116994        -1.066644
 H         2.005572         1.702934        -1.222236
