19
Iteration:  1821charge 0 multiplicity 1
 C         0.053298         0.477181         0.133504
 C         1.502051        -0.028083         0.078723
 C         2.079916        -0.978906         1.241057
 O         3.389545        -1.413820         1.193395
 C         4.381581        -0.442482         1.373428
 C         4.698469         0.447015         0.130483
 C         3.858227         1.059618        -0.654253
 C         2.382237         0.948951        -0.633011
 O         1.979172        -0.270535        -1.271492
 H        -0.201129         0.926230         1.074359
 H        -0.213943         1.266715        -0.593652
 H        -0.637385        -0.422828         0.025421
 H         1.777063        -0.523209         2.180725
 H         1.476937        -1.934016         1.041773
 H         4.149927         0.205394         2.315276
 H         5.193777        -0.967426         1.815693
 H         5.817706         0.518599        -0.079685
 H         4.341279         1.604194        -1.492315
 H         1.877325         1.945192        -1.029708
