19
Iteration:  3475charge 0 multiplicity 1
 C         0.212126         0.513786         0.328969
 C         1.591125        -0.024128         0.061658
 C         2.055385        -1.035459         1.053274
 O         3.285891        -1.574938         0.933029
 C         4.531263        -0.701536         1.180620
 C         4.601014         0.637900         0.520517
 C         3.772231         1.248626        -0.388174
 C         2.353000         0.992147        -0.729912
 O         1.927586        -0.243879        -1.359136
 H        -0.010162         1.520090        -0.322294
 H        -0.709982        -0.109742         0.060293
 H         0.124575         0.632778         1.496692
 H         1.940994        -0.497817         2.040582
 H         1.353288        -1.852276         0.995841
 H         4.633443        -0.613978         2.209676
 H         5.264976        -1.359530         0.904899
 H         5.494216         1.174111         0.779224
 H         4.179573         2.232432        -0.605443
 H         1.863914         1.863024        -1.031817
