19
Iteration:  1064charge 0 multiplicity 1
 C         0.065472         0.304854         0.121284
 C         1.600012         0.106637         0.084173
 C         2.004664        -0.679250         1.358629
 O         3.126774        -1.485536         1.165596
 C         4.331525        -0.673427         1.110628
 C         4.602415         0.485189         0.084606
 C         3.822356         1.354615        -0.555382
 C         2.454908         0.946143        -0.786005
 O         2.281036        -0.476840        -1.021140
 H        -0.313626         0.675023         1.065067
 H        -0.220733         1.116481        -0.649810
 H        -0.438608        -0.583647        -0.199914
 H         2.111300         0.012492         2.165736
 H         1.236956        -1.442583         1.510584
 H         4.559229        -0.129818         2.046700
 H         5.123034        -1.404435         0.928687
 H         5.618102         0.835315         0.204468
 H         4.316596         2.147175        -0.893878
 H         1.855670         1.498678        -1.449596
