19
Iteration:  3998charge 0 multiplicity 1
 C         0.058694         0.160321         0.234455
 C         1.566104         0.042698        -0.002857
 C         2.045643        -0.974077         1.098278
 O         3.350135        -1.533445         1.153546
 C         4.432316        -0.685560         1.284474
 C         4.767244         0.377547         0.253806
 C         3.840889         1.149650        -0.386136
 C         2.402010         1.142261        -0.436958
 O         1.885887         0.141025        -1.572078
 H        -0.391329         0.752291        -0.543192
 H        -0.438899        -0.871071         0.285394
 H        -0.066447         0.591362         1.191248
 H         1.806126        -0.268061         1.951626
 H         1.300421        -1.884107         0.958947
 H         4.364007        -0.155039         2.400577
 H         5.240891        -1.368128         1.429840
 H         5.804379         0.418045         0.126319
 H         4.313303         1.940690        -0.906162
 H         1.883178         2.051592        -0.702976
