19
Iteration:  4450
 C         0.099871         0.483579         0.209729
 C         1.513313        -0.028083         0.096572
 C         2.013549        -1.178463         0.990358
 O         3.338312        -1.595737         0.726959
 C         4.387068        -0.629514         1.281899
 C         4.688681         0.524693         0.428418
 C         3.873928         1.301230        -0.358956
 C         2.420693         1.069123        -0.477840
 O         2.019495        -0.095997        -1.194286
 H        -0.545074        -0.019824         0.920726
 H         0.087662         1.525330         0.431292
 H        -0.417111         0.306162        -0.761200
 H         1.728171        -0.947107         2.047952
 H         1.327114        -1.931206         0.453612
 H         3.999989        -0.440142         2.363960
 H         5.212331        -1.263940         1.498950
 H         5.809455         0.703492         0.330278
 H         4.266461         2.149565        -1.002650
 H         1.793347         1.947324        -0.807697
