19
Iteration:  4794charge 0 multiplicity 1
 C         0.051087         0.178105         0.199624
 C         1.549427         0.076263        -0.019349
 C         1.996512        -0.984779         1.057714
 O         3.329805        -1.653950         0.960522
 C         4.420628        -0.738382         1.300386
 C         4.650294         0.421132         0.376274
 C         3.867220         1.239402        -0.367360
 C         2.422444         1.188423        -0.469057
 O         2.023441         0.156312        -1.360069
 H        -0.274190        -0.111237         1.229929
 H        -0.260004         1.103816        -0.245809
 H        -0.416422        -0.697405        -0.354638
 H         1.944602        -0.521410         2.023567
 H         1.297148        -1.883497         1.231228
 H         4.234837        -0.257229         2.298196
 H         5.234759        -1.452856         1.342656
 H         5.728182         0.632546        -0.014286
 H         4.326520         1.823312        -1.182131
 H         1.989882         2.247849        -0.833707
