19
Iteration:  3781charge 0 multiplicity 1
 C        -0.025662         0.175335         0.100298
 C         1.477595         0.070403         0.157652
 C         2.019927        -0.929723         1.154072
 O         3.294422        -1.436794         0.845542
 C         4.456912        -0.643274         1.235676
 C         4.871342         0.475043         0.271609
 C         3.949997         1.156908        -0.413552
 C         2.382967         1.048447        -0.453247
 O         1.901095        -0.066123        -1.205671
 H        -0.191724         0.630814        -0.871188
 H        -0.423294        -0.742304        -0.070683
 H        -0.370870         0.644318         1.015927
 H         2.071026        -0.313560         2.156076
 H         1.319349        -1.723793         1.256979
 H         4.106769        -0.212045         2.191312
 H         5.171957        -1.551205         1.181481
 H         6.028559         0.587662         0.086360
 H         4.432551         1.839588        -1.120696
 H         2.073801         2.130240        -0.649736
