19
Iteration:  4914
 C         0.176226         0.483530         0.494689
 C         1.484336         0.045763        -0.094013
 C         2.118454        -0.940169         0.796041
 O         3.370477        -1.581507         0.763008
 C         4.388281        -0.719224         1.348641
 C         4.589852         0.623069         0.765072
 C         3.838894         1.170306        -0.271447
 C         2.439779         0.989486        -0.749495
 O         1.875482        -0.218604        -1.425746
 H         0.477677         1.184129         1.230842
 H        -0.469320         0.872491        -0.260166
 H        -0.272502        -0.411054         1.048599
 H         1.931926        -0.755282         1.961066
 H         1.537786        -1.845308         0.530283
 H         4.127660        -0.709837         2.449424
 H         5.440992        -1.064974         1.112329
 H         5.542873         1.122582         0.967180
 H         4.257135         2.000063        -0.836173
 H         2.002163         2.044061        -1.048009
