19
Iteration:  2299charge 0 multiplicity 1
 C         0.171216         0.471560         0.391882
 C         1.575267        -0.042969        -0.030745
 C         2.097067        -0.903921         1.127279
 O         3.363981        -1.384772         1.126645
 C         4.383550        -0.522787         1.451697
 C         4.677553         0.559274         0.392446
 C         3.799623         1.080972        -0.627217
 C         2.359935         0.856718        -0.849877
 O         1.867932        -0.355198        -1.440490
 H         0.141053         0.786499         1.546224
 H        -0.132967         1.443302        -0.087643
 H        -0.551172        -0.233540         0.318753
 H         2.018171        -0.200163         1.991361
 H         1.403605        -1.729137         1.323346
 H         4.336911        -0.088506         2.478028
 H         5.315189        -1.180379         1.440502
 H         5.669008         0.899357         0.472730
 H         4.197968         1.858253        -1.275041
 H         2.063276         1.760586        -1.419117
