19
Iteration:  2819charge 0 multiplicity 1
 C         0.138019         0.274562         0.214178
 C         1.661118        -0.027431         0.039101
 C         2.005000        -0.995712         1.163421
 O         3.230543        -1.561693         1.108043
 C         4.411732        -0.767989         1.069773
 C         4.579869         0.453681         0.241779
 C         3.830838         1.357961        -0.308737
 C         2.355414         1.124090        -0.548930
 O         2.086624        -0.064938        -1.336307
 H        -0.205988         0.448158        -0.892654
 H        -0.580045        -0.573581         0.619754
 H        -0.062840         1.317366         0.740129
 H         1.880627        -0.224291         2.056681
 H         1.381465        -1.900390         1.180700
 H         4.680353        -0.142547         2.121824
 H         5.216918        -1.392445         0.820636
 H         5.635411         0.708737         0.319530
 H         4.282134         2.217205        -0.846520
 H         1.859492         2.008521        -0.869564
