19
Iteration:  3432
 C        -0.006177         0.259837         0.233899
 C         1.517587         0.080904         0.066490
 C         2.000409        -0.907561         1.165293
 O         3.306664        -1.480798         0.789111
 C         4.411475        -0.741132         1.162592
 C         4.775858         0.472134         0.341598
 C         3.825159         1.200830        -0.372273
 C         2.383265         1.106374        -0.557663
 O         2.086400        -0.137083        -1.187314
 H        -0.286021         0.477473        -0.907772
 H        -0.554523        -0.686084         0.507373
 H        -0.270029         1.030023         1.030714
 H         2.099800        -0.381380         2.071931
 H         1.301396        -1.730739         1.306025
 H         4.343273        -0.445668         2.290444
 H         5.277611        -1.431056         1.202056
 H         5.789723         0.790865         0.221264
 H         4.137672         2.145486        -0.845443
 H         1.930607         1.936635        -0.946604
