19
Iteration:   314
 C         0.277711         0.525930         0.357367
 C         1.621548         0.034889         0.098635
 C         2.000166        -0.922692         1.165540
 O         3.308617        -1.395747         1.218964
 C         4.397507        -0.555820         1.308735
 C         4.632855         0.470095         0.178019
 C         3.743944         1.258554        -0.600537
 C         2.410954         0.805227        -0.881607
 O         1.973154        -0.420577        -1.331153
 H         0.175968         1.091874         1.366256
 H        -0.184752         1.061275        -0.374702
 H        -0.498054        -0.348763         0.425616
 H         1.659809        -0.512726         2.207928
 H         1.391844        -1.907905         0.961253
 H         4.335810         0.139925         2.179875
 H         5.235617        -1.201030         1.432044
 H         5.568069         0.958072         0.345075
 H         4.030076         2.244572        -0.906358
 H         1.711255         1.604796        -1.316287
