19
Iteration:  2514charge 0 multiplicity 1
 C        -0.028393         0.435575         0.163409
 C         1.516508         0.025497         0.040732
 C         2.143275        -0.753616         1.276271
 O         3.298545        -1.409382         0.772469
 C         4.514897        -0.677475         1.193141
 C         4.648928         0.610355         0.535346
 C         3.914340         1.167229        -0.426222
 C         2.439658         0.886842        -0.741193
 O         1.870390        -0.447113        -1.199546
 H        -0.679852        -0.142717        -0.473102
 H        -0.323155         0.365880         1.219317
 H        -0.162678         1.436996        -0.075978
 H         2.386650        -0.143889         2.151072
 H         1.543972        -1.612498         1.638424
 H         4.451731        -0.633770         2.296766
 H         5.413420        -1.351426         1.034566
 H         5.615061         1.050703         0.737632
 H         4.230570         2.096250        -0.863567
 H         1.972100         1.770098        -1.295254
