19
Iteration:  4628charge 0 multiplicity 1
 C         0.002604         0.195840         0.097450
 C         1.526132         0.056010         0.080128
 C         2.077761        -0.979054         1.173692
 O         3.290602        -1.501817         0.916954
 C         4.371921        -0.677926         1.249409
 C         4.774135         0.395432         0.267638
 C         3.922356         1.212676        -0.421034
 C         2.447489         1.125068        -0.490776
 O         1.963326        -0.019189        -1.239871
 H        -0.439223         0.005733        -0.847206
 H        -0.487585        -0.277975         0.985737
 H        -0.376532         1.183919         0.267522
 H         1.990712        -0.681309         2.242587
 H         1.317985        -1.865495         1.040751
 H         3.963160        -0.048568         1.997335
 H         5.153942        -1.360229         1.523779
 H         5.816655         0.697147         0.189933
 H         4.430648         2.060560        -0.826011
 H         2.048470         2.162071        -0.845303
