19
Iteration:  3673
 C         0.069737         0.533326         0.341492
 C         1.421320         0.000627         0.094832
 C         2.093145        -1.035700         1.004121
 O         3.450252        -1.400878         0.583016
 C         4.383703        -0.615904         1.337815
 C         4.723456         0.553355         0.573876
 C         3.897527         1.171114        -0.326693
 C         2.448535         0.897546        -0.684210
 O         1.840387        -0.315733        -1.253239
 H        -0.169705         1.547241        -0.310232
 H        -0.615441        -0.188539         0.120442
 H        -0.300046         0.947684         1.317871
 H         2.090926        -0.811890         2.027161
 H         1.449843        -1.881400         0.906794
 H         4.093839        -0.369998         2.376047
 H         5.266510        -1.221819         1.573793
 H         5.796254         1.017282         0.649389
 H         4.220998         2.016186        -0.989046
 H         2.014899         1.824994        -1.014624
