19
Iteration:  4724charge 0 multiplicity 1
 C         0.058339         0.548952         0.306898
 C         1.515732         0.019267         0.064216
 C         2.010068        -1.037300         1.053474
 O         3.335556        -1.434500         0.606495
 C         4.439515        -0.751118         1.227482
 C         4.573397         0.602828         0.597591
 C         3.885125         1.257664        -0.335283
 C         2.461820         0.913191        -0.617705
 O         2.063079        -0.290917        -1.216360
 H        -0.715832        -0.173754         0.289004
 H         0.040614         1.295417         1.152429
 H        -0.335987         1.135234        -0.492394
 H         1.812611        -0.723578         2.071199
 H         1.421259        -1.888923         0.870903
 H         4.086191        -0.716827         2.255826
 H         5.320833        -1.432707         1.098950
 H         5.422374         1.048602         0.946823
 H         4.212818         2.184860        -0.794419
 H         1.982188         1.705906        -1.167847
