19
Iteration:  2828
 C         0.141690         0.278115         0.173231
 C         1.586952         0.010898         0.043881
 C         1.964121        -0.949535         1.162713
 O         3.291446        -1.559928         1.088794
 C         4.396677        -0.793401         1.060091
 C         4.613580         0.458316         0.271990
 C         3.795972         1.425216        -0.339121
 C         2.383249         1.126946        -0.528885
 O         2.118013        -0.126784        -1.324827
 H        -0.322630         0.473161        -0.807923
 H        -0.454291        -0.577419         0.700016
 H         0.064409         1.212284         0.873152
 H         1.827425        -0.456863         2.223756
 H         1.200775        -1.703778         1.225537
 H         4.701743        -0.551008         2.185304
 H         5.214220        -1.532374         0.838810
 H         5.627392         0.620087         0.217918
 H         4.284399         2.357200        -0.823053
 H         1.667721         1.941962        -0.941706
