19
Iteration:   360
 C         0.042693         0.332111         0.266818
 C         1.534609         0.025389         0.141805
 C         2.074179        -0.819895         1.210853
 O         3.379468        -1.309061         0.965041
 C         4.407011        -0.410670         1.416126
 C         4.795613         0.442999         0.314280
 C         3.909669         0.935108        -0.669027
 C         2.429945         0.849115        -0.748858
 O         1.772403        -0.269477        -1.291638
 H        -0.227941         0.861348         1.166546
 H        -0.204321         0.890310        -0.729350
 H        -0.554424        -0.590836         0.160645
 H         2.148989        -0.218051         2.202147
 H         1.404262        -1.733682         1.351264
 H         4.145245         0.166802         2.307746
 H         5.321863        -1.094327         1.611484
 H         5.811658         0.905206         0.351336
 H         4.349616         1.454656        -1.377001
 H         1.993389         1.836518        -0.965221
