19
Iteration:  4954
 C         0.095360         0.450691         0.253727
 C         1.544542        -0.031668         0.020696
 C         2.034246        -1.093027         1.001227
 O         3.374919        -1.602622         0.770919
 C         4.328636        -0.669713         1.209317
 C         4.725402         0.601407         0.540263
 C         3.915793         1.278649        -0.327677
 C         2.420803         1.010992        -0.529551
 O         1.901409        -0.139883        -1.304487
 H        -0.159057         0.877277         1.263850
 H        -0.029441         1.316497        -0.514438
 H        -0.652930        -0.364131         0.085901
 H         1.897607        -0.660534         1.957962
 H         1.299584        -1.911924         0.997482
 H         4.071976        -0.259084         2.202612
 H         5.267377        -1.250793         1.466811
 H         5.809059         0.969301         0.656999
 H         4.355949         2.199415        -0.769488
 H         1.889080         1.862745        -0.795007
