19
Iteration:  2884
 C         0.041872         0.355780         0.119932
 C         1.518444         0.057469         0.121930
 C         2.116761        -0.734142         1.227622
 O         3.280374        -1.382674         0.636799
 C         4.534960        -0.823658         1.100891
 C         4.740472         0.603073         0.602133
 C         3.786237         1.184876        -0.221240
 C         2.413892         0.945315        -0.615187
 O         1.882170        -0.375198        -1.233082
 H        -0.105863         1.245954        -0.635255
 H        -0.538164        -0.606362        -0.207819
 H        -0.459991         0.732124         1.105979
 H         2.660375        -0.009503         1.936201
 H         1.386799        -1.404602         1.698111
 H         4.524203        -0.876893         2.127756
 H         5.262545        -1.547180         0.708590
 H         5.673492         1.139885         0.776986
 H         4.153993         2.099446        -0.710648
 H         1.951063         1.756728        -1.254596
