19
Iteration:  2151charge 0 multiplicity 1
 C         0.084090         0.537403         0.428410
 C         1.532364         0.017206         0.007790
 C         2.069133        -0.990026         1.051419
 O         3.443185        -1.351730         1.038595
 C         4.437494        -0.465287         1.464351
 C         4.662856         0.583357         0.458622
 C         3.935597         1.008684        -0.573522
 C         2.433142         0.830676        -0.869597
 O         1.747103        -0.378486        -1.414804
 H        -0.000302         1.305420         1.179855
 H        -0.417048         0.964254        -0.440385
 H        -0.459700        -0.462659         0.761247
 H         1.883937        -0.430019         1.993766
 H         1.448478        -1.910311         1.079328
 H         4.121273         0.029849         2.358794
 H         5.301440        -0.998909         1.722317
 H         5.642169         1.002526         0.476814
 H         4.495398         1.677517        -1.220947
 H         2.028130         1.707751        -1.466414
