19
Iteration:  3668charge 0 multiplicity 1
 C         0.057961         0.502168         0.346013
 C         1.474078        -0.009799         0.054056
 C         2.090050        -1.002385         1.000682
 O         3.417731        -1.384196         0.602982
 C         4.364109        -0.633974         1.342977
 C         4.764131         0.540341         0.518049
 C         3.921561         1.189143        -0.309451
 C         2.470995         0.910082        -0.673645
 O         1.800356        -0.285961        -1.228598
 H        -0.151729         1.208215        -0.417290
 H        -0.831284        -0.285139         0.123249
 H        -0.234389         0.840104         1.333758
 H         2.047473        -0.717450         2.135567
 H         1.588960        -2.023391         0.862709
 H         3.947250        -0.309564         2.317707
 H         5.348663        -1.216653         1.609748
 H         5.715940         0.947091         0.654821
 H         4.404438         1.984172        -0.845403
 H         1.907698         1.819705        -1.079964
