19
Iteration:  2186
 C         0.191748         0.412368         0.380985
 C         1.643604         0.014739         0.042245
 C         2.014189        -1.041790         1.104140
 O         3.351470        -1.420389         1.238724
 C         4.340287        -0.399590         1.430245
 C         4.625238         0.483314         0.238932
 C         3.873378         1.067589        -0.674039
 C         2.439669         0.954501        -0.782639
 O         1.882080        -0.238356        -1.406275
 H         0.063258         1.093012         1.312111
 H        -0.237068         0.676548        -0.600129
 H        -0.397779        -0.505047         0.589181
 H         1.716381        -0.560914         2.037392
 H         1.438266        -1.982228         0.981408
 H         4.043898         0.268398         2.193634
 H         5.180545        -0.953101         1.752553
 H         5.767779         0.608568         0.168313
 H         4.373433         1.648821        -1.509397
 H         1.724884         1.824841        -1.080656
