19
Iteration:  2055
 C         0.095638         0.236379         0.223598
 C         1.539194         0.018797        -0.016170
 C         2.066274        -0.782215         1.267454
 O         3.273557        -1.421567         1.210599
 C         4.451156        -0.657708         1.281356
 C         4.717943         0.494748         0.283817
 C         3.856964         1.164564        -0.565932
 C         2.415045         0.960575        -0.734141
 O         1.892004        -0.233414        -1.387176
 H        -0.104521         0.880894         1.202122
 H        -0.228372         0.865751        -0.633725
 H        -0.299710        -0.676031         0.111072
 H         2.117174         0.103519         1.995054
 H         1.332914        -1.534782         1.701533
 H         4.429963        -0.086034         2.298436
 H         5.338349        -1.361956         1.351628
 H         5.819964         0.708618         0.198832
 H         4.279177         1.885460        -1.230978
 H         1.899837         1.940911        -1.007634
