19
Iteration:   803charge 0 multiplicity 1
 C         0.051529         0.577890         0.103511
 C         1.514504        -0.021530         0.067727
 C         1.996440        -1.007256         1.238952
 O         3.412982        -1.470977         1.095858
 C         4.398019        -0.401684         1.317611
 C         4.801480         0.594019         0.188627
 C         3.848666         1.071470        -0.566450
 C         2.384937         0.840352        -0.620363
 O         1.916214        -0.366038        -1.212078
 H        -0.187498         0.896059         1.116459
 H         0.137230         1.497485        -0.590891
 H        -0.691951        -0.192518        -0.168913
 H         1.904000        -0.499034         2.187759
 H         1.422946        -1.960060         1.130544
 H         3.983062         0.196691         2.213083
 H         5.248747        -0.946311         1.633876
 H         5.879250         0.676851         0.061532
 H         4.158444         1.618198        -1.364934
 H         1.880485         1.729333        -1.066729
