19
Iteration:     3charge 0 multiplicity 1
 C         0.059719         0.415910         0.221105
 C         1.530161         0.051442         0.068265
 C         2.058786        -0.797270         1.228556
 O         3.310555        -1.384767         1.017825
 C         4.443299        -0.583310         1.258476
 C         4.689492         0.533290         0.305442
 C         3.875756         1.132289        -0.543030
 C         2.402072         0.884856        -0.753843
 O         1.934573        -0.406684        -1.193579
 H        -0.070208         0.970617         1.112110
 H        -0.288476         1.023378        -0.727866
 H        -0.507207        -0.484730         0.263923
 H         2.066112        -0.193300         2.083971
 H         1.415690        -1.670387         1.353699
 H         4.445324        -0.194728         2.293814
 H         5.345779        -1.339522         1.198609
 H         5.748255         0.833786         0.255681
 H         4.245112         1.887270        -1.148098
 H         1.909571         1.652354        -1.248657
