19
Iteration:   701
 C         0.104011         0.471962         0.157939
 C         1.569381         0.003337        -0.000849
 C         2.153066        -0.814914         1.185142
 O         3.370023        -1.479358         1.244617
 C         4.489679        -0.609889         1.336764
 C         4.619760         0.556066         0.367671
 C         3.779206         1.126349        -0.541428
 C         2.396369         0.879170        -0.767849
 O         1.814036        -0.356535        -1.402192
 H         0.108431         1.439336         0.680314
 H        -0.190501         0.676525        -0.805059
 H        -0.475026        -0.334635         0.586405
 H         2.050594        -0.033824         1.970301
 H         1.331475        -1.601882         1.515667
 H         4.669134        -0.259164         2.384532
 H         5.301999        -1.240067         1.164695
 H         5.628928         0.988057         0.386945
 H         4.401150         1.994553        -1.120588
 H         1.831294         1.860699        -1.047601
