19
Iteration:   358
 C         0.039882         0.347933         0.270612
 C         1.535640         0.022053         0.129372
 C         2.072021        -0.809681         1.213093
 O         3.379161        -1.339351         0.974479
 C         4.406224        -0.417910         1.426985
 C         4.793446         0.460936         0.310815
 C         3.898441         0.945787        -0.675959
 C         2.419859         0.852024        -0.750244
 O         1.792675        -0.276856        -1.296895
 H        -0.196898         0.896998         1.237532
 H        -0.188417         0.871033        -0.631991
 H        -0.534206        -0.638398         0.175422
 H         2.159736        -0.201893         2.112831
 H         1.404626        -1.721513         1.360548
 H         4.116421         0.102527         2.320171
 H         5.262887        -1.012905         1.581439
 H         5.801377         0.886620         0.348957
 H         4.406202         1.458846        -1.462619
 H         1.975792         1.874703        -0.941801
