19
Iteration:  2789
 C        -0.031538         0.294876         0.191245
 C         1.475809         0.030915         0.043451
 C         2.046104        -0.962886         1.089995
 O         3.371108        -1.538867         0.970371
 C         4.526573        -0.745606         1.300551
 C         4.733968         0.439185         0.354909
 C         3.881221         1.284668        -0.383350
 C         2.412818         1.157264        -0.552864
 O         1.900091        -0.097480        -1.362950
 H        -0.376108         0.704252        -0.799877
 H        -0.558757        -0.542360         0.595980
 H        -0.295265         1.067969         0.881156
 H         1.909769        -0.485945         2.030557
 H         1.384507        -1.883758         1.138021
 H         4.363619        -0.339130         2.271690
 H         5.385321        -1.446774         1.326334
 H         5.899864         0.580447         0.311498
 H         4.425943         1.978301        -0.981858
 H         1.928002         2.043558        -0.980457
