19
Iteration:   207
 C        -0.005860         0.296378         0.215719
 C         1.498907         0.078141         0.063921
 C         2.024808        -0.661308         1.262463
 O         3.235112        -1.383938         1.131020
 C         4.481968        -0.706736         1.144120
 C         4.710916         0.587182         0.292056
 C         3.857420         1.099786        -0.538592
 C         2.422399         0.892062        -0.809934
 O         2.063105        -0.365630        -1.202657
 H        -0.063939         0.847536         1.194196
 H        -0.357463         0.998600        -0.586585
 H        -0.480770        -0.704636         0.326285
 H         2.080616         0.027267         2.086802
 H         1.259813        -1.328267         1.634334
 H         4.795672        -0.534301         2.151527
 H         5.296528        -1.499627         0.777897
 H         5.649834         1.038033         0.455101
 H         4.225776         1.880062        -1.110179
 H         1.880145         1.711355        -1.295298
