19
Iteration:  3740
 C         0.122023         0.347924         0.391968
 C         1.557468         0.062363         0.015345
 C         2.081739        -0.943481         1.022111
 O         3.354765        -1.585255         0.946171
 C         4.407616        -0.699137         1.281629
 C         4.654376         0.522681         0.422291
 C         3.825479         1.243741        -0.373888
 C         2.373793         1.040758        -0.737813
 O         1.930471        -0.164015        -1.395728
 H        -0.128850         1.459203        -0.036839
 H        -0.619727        -0.362967         0.030286
 H         0.029837         0.303408         1.517902
 H         2.009302        -0.413544         1.992720
 H         1.381257        -1.793708         1.052297
 H         4.287047        -0.275211         2.278619
 H         5.379393        -1.282100         1.390453
 H         5.683153         0.890833         0.693761
 H         4.266953         2.199734        -0.784955
 H         1.823360         1.832616        -1.171079
