19
Iteration:    55charge 0 multiplicity 1
 C         0.123098         0.471420         0.131965
 C         1.558206        -0.076485         0.011994
 C         2.004321        -0.814382         1.307929
 O         3.287422        -1.437392         1.201727
 C         4.450647        -0.657496         1.076431
 C         4.664920         0.549384         0.279606
 C         3.818484         1.323627        -0.483755
 C         2.427898         0.877730        -0.672710
 O         1.957279        -0.444361        -1.261445
 H         0.167395         1.428939         0.655785
 H        -0.182624         0.609104        -0.875759
 H        -0.589958        -0.208087         0.617718
 H         2.098046         0.063303         2.051443
 H         1.361406        -1.624549         1.657520
 H         4.792920        -0.337062         2.100282
 H         5.165784        -1.296013         0.736244
 H         5.700185         0.841230         0.270802
 H         4.085032         2.313077        -0.826271
 H         1.858099         1.692174        -1.201554
