19
Iteration:   548
 C         0.109650         0.392171         0.190158
 C         1.579400         0.018095         0.074847
 C         1.994528        -0.841936         1.233160
 O         3.247343        -1.418289         1.120828
 C         4.459233        -0.635480         1.248300
 C         4.652565         0.559329         0.244001
 C         3.889862         1.244004        -0.577592
 C         2.371873         0.968559        -0.766492
 O         2.043165        -0.424414        -1.167219
 H         0.098577         1.165174         1.010079
 H        -0.284145         0.753108        -0.812707
 H        -0.548702        -0.415108         0.529434
 H         1.726960        -0.274850         2.133990
 H         1.310649        -1.736149         1.043589
 H         4.410538        -0.056848         2.269483
 H         5.190673        -1.432675         1.252361
 H         5.735459         0.733160         0.089696
 H         4.279696         1.963361        -1.331394
 H         1.695837         1.794367        -1.149345
