19
Iteration:  3106
 C         0.278149         0.613610         0.520123
 C         1.546293        -0.006373         0.011629
 C         2.055628        -1.184545         0.899325
 O         3.427454        -1.531618         0.791631
 C         4.239956        -0.580848         1.373996
 C         4.598978         0.696434         0.563765
 C         3.861991         1.216158        -0.471672
 C         2.452618         0.846549        -0.645908
 O         1.844597        -0.245517        -1.428516
 H         0.104345         1.640981        -0.065635
 H        -0.705653        -0.015050         0.540883
 H         0.500162         0.962574         1.595036
 H         1.744769        -1.078947         1.994473
 H         1.587350        -2.093981         0.604882
 H         3.930116        -0.307160         2.380925
 H         5.110811        -1.177564         1.545584
 H         5.600385         0.998811         0.776898
 H         4.352221         1.998004        -1.131586
 H         1.964025         1.761475        -1.040917
