19
Iteration:    46charge 0 multiplicity 1
 C         0.122957         0.518878         0.129902
 C         1.503203        -0.040375         0.129893
 C         1.957503        -0.915396         1.261217
 O         3.291024        -1.431305         1.240992
 C         4.470312        -0.639811         1.040228
 C         4.664295         0.608987         0.223416
 C         3.859943         1.278962        -0.526337
 C         2.419323         0.845636        -0.764058
 O         2.025268        -0.422797        -1.203462
 H         0.000786         1.376132         0.675149
 H        -0.297727         0.763619        -0.964045
 H        -0.555037        -0.138662         0.548593
 H         1.897232        -0.212905         2.194642
 H         1.276177        -1.732233         1.521461
 H         4.766369        -0.314725         2.037613
 H         5.267958        -1.375584         0.776168
 H         5.680876         0.944278         0.459350
 H         3.999489         2.280105        -0.594515
 H         1.880022         1.654752        -1.138681
