19
Iteration:  3892charge 0 multiplicity 1
 C         0.076558         0.482332         0.345216
 C         1.490239         0.042259        -0.003264
 C         2.143098        -0.833003         1.049981
 O         3.376222        -1.379858         0.745282
 C         4.520004        -0.802534         1.244353
 C         4.597762         0.624124         0.691653
 C         3.863303         1.144033        -0.284708
 C         2.423655         0.889138        -0.819477
 O         1.830836        -0.350797        -1.303598
 H        -0.270686         1.344186        -0.338045
 H        -0.639504        -0.335859         0.195100
 H        -0.100308         0.897806         1.318179
 H         2.129099        -0.426863         2.001650
 H         1.634335        -1.671829         1.171547
 H         4.655900        -0.891920         2.454816
 H         5.324068        -1.330554         0.662766
 H         5.449643         1.209762         0.886930
 H         3.991475         2.158735        -0.645902
 H         2.080867         1.648917        -1.425886
