19
Iteration:  2138
 C         0.151471         0.517194         0.324600
 C         1.492408         0.005794         0.066992
 C         2.048737        -0.909715         1.129264
 O         3.413645        -1.404458         0.881895
 C         4.365699        -0.402610         1.467069
 C         4.792246         0.622810         0.444108
 C         3.944145         1.057990        -0.560952
 C         2.472427         0.703549        -0.823829
 O         1.701792        -0.408333        -1.352641
 H         0.264735         1.198990         1.108996
 H        -0.226585         0.973661        -0.609432
 H        -0.779753        -0.204058         0.711425
 H         1.921249        -0.499966         2.192001
 H         1.461460        -1.847787         1.084736
 H         4.018036        -0.002536         2.420279
 H         5.267430        -0.998286         1.650621
 H         5.699077         1.097157         0.647198
 H         4.214824         1.936506        -1.133565
 H         2.051409         1.672603        -1.077928
