19
Iteration:   225
 C        -0.126011         0.285827         0.294693
 C         1.434601         0.084692        -0.006428
 C         2.095104        -0.608672         1.230443
 O         3.274730        -1.359682         0.957997
 C         4.467080        -0.646939         1.255737
 C         4.768103         0.512418         0.351869
 C         3.999953         1.158437        -0.478879
 C         2.485424         0.945611        -0.782531
 O         1.925444        -0.485125        -1.240633
 H        -0.311946         0.959919         1.196085
 H        -0.706029         0.548270        -0.525223
 H        -0.437048        -0.761167         0.625446
 H         2.196304         0.063378         2.155278
 H         1.269101        -1.306503         1.639908
 H         4.610379        -0.324152         2.368711
 H         5.279100        -1.371607         1.142851
 H         5.877727         0.671091         0.281965
 H         4.365514         1.985228        -1.176345
 H         2.106279         1.745133        -1.527401
