19
Iteration:  2012charge 0 multiplicity 1
 C        -0.044448         0.169750         0.081117
 C         1.523066         0.077331         0.067221
 C         2.036761        -0.616588         1.267367
 O         3.296418        -1.427263         1.131746
 C         4.556042        -0.639357         1.267526
 C         4.779133         0.384412         0.244665
 C         3.886897         1.141677        -0.455228
 C         2.360778         1.035278        -0.728578
 O         1.899452        -0.282899        -1.268158
 H        -0.568450         0.520146         1.094832
 H        -0.349882         0.888174        -0.696376
 H        -0.313024        -0.816375        -0.058598
 H         2.174739         0.276792         1.978418
 H         1.458881        -1.377470         1.731805
 H         4.680542        -0.152591         2.180867
 H         5.390660        -1.418895         1.249231
 H         5.867553         0.644791         0.104345
 H         4.442748         1.828178        -1.040651
 H         1.844026         1.811003        -1.244052
