19
Iteration:  2314
 C         0.246071         0.517210         0.323865
 C         1.579074         0.002479        -0.018497
 C         2.048696        -0.808776         1.161490
 O         3.374609        -1.460345         1.087445
 C         4.441809        -0.509191         1.326723
 C         4.534723         0.573936         0.427184
 C         3.801904         1.096595        -0.525648
 C         2.397954         0.872702        -0.841703
 O         1.889617        -0.446902        -1.357773
 H         0.219478         0.988768         1.247374
 H        -0.072504         1.322223        -0.288842
 H        -0.596962        -0.341006         0.400686
 H         1.893949        -0.385958         2.115172
 H         1.359273        -1.659711         1.109927
 H         4.344609        -0.204290         2.306860
 H         5.356203        -1.140224         1.353929
 H         5.547659         1.105237         0.202399
 H         4.361393         1.756445        -1.202036
 H         1.701591         1.597389        -1.122665
