19
Iteration:  4873charge 0 multiplicity 1
 C         0.192915         0.478839         0.278367
 C         1.572926         0.006671         0.122950
 C         2.051586        -1.119807         0.948357
 O         3.376126        -1.471170         0.634786
 C         4.316687        -0.657370         1.320758
 C         4.698166         0.600452         0.615305
 C         3.820809         1.188976        -0.292332
 C         2.429516         0.928857        -0.580039
 O         1.891300        -0.148467        -1.341416
 H         0.314800         1.481152         0.727743
 H        -0.359858         0.667237        -0.579644
 H        -0.480857        -0.101373         0.894760
 H         1.959151        -0.898930         1.972199
 H         1.425930        -2.003865         0.563346
 H         3.996308        -0.459125         2.341686
 H         5.061037        -1.394069         1.322580
 H         5.632031         1.055167         0.838553
 H         4.235548         2.078427        -0.741975
 H         1.894057         1.842272        -0.963285
