19
Iteration:  2466charge 0 multiplicity 1
 C        -0.013669         0.361941         0.096997
 C         1.526872         0.029584         0.021146
 C         2.007185        -0.783929         1.279055
 O         3.258963        -1.465278         1.042109
 C         4.477381        -0.724775         1.106797
 C         4.731928         0.523796         0.247247
 C         3.863058         1.379599        -0.386311
 C         2.413904         0.926810        -0.667303
 O         2.026724        -0.392521        -1.145097
 H        -0.371113         0.535482        -0.839798
 H        -0.671739        -0.332249         0.573732
 H        -0.178808         1.343973         0.677968
 H         2.202366        -0.004217         2.072627
 H         1.426292        -1.617319         1.692748
 H         4.755340        -0.523677         2.123075
 H         5.289101        -1.498457         0.796243
 H         5.819905         0.839853         0.502114
 H         4.091763         2.303234        -0.954139
 H         1.930141         1.587826        -1.321635
