19
Iteration:  3806
 C        -0.129799         0.229837         0.071851
 C         1.446825         0.094483         0.211354
 C         1.993090        -0.978016         1.201706
 O         3.334382        -1.416166         0.867715
 C         4.466715        -0.675104         1.157554
 C         4.796661         0.405135         0.196044
 C         3.959085         1.266040        -0.405891
 C         2.412196         1.074352        -0.462196
 O         2.024633        -0.135971        -1.154882
 H        -0.167032         0.611523        -1.015431
 H        -0.614057        -0.701264         0.079104
 H        -0.528852         0.884147         0.837019
 H         1.892685        -0.586990         2.306249
 H         1.352234        -1.876046         1.039154
 H         4.347520        -0.195694         2.107008
 H         5.298917        -1.449386         1.237861
 H         5.814857         0.607803         0.249091
 H         4.475616         2.082186        -0.954523
 H         1.994842         1.937005        -0.889711
