19
Iteration:  1109charge 0 multiplicity 1
 C        -0.058000         0.268410         0.038863
 C         1.440064         0.037963        -0.004784
 C         2.126760        -0.579098         1.249171
 O         3.346235        -1.320331         1.154502
 C         4.575374        -0.727149         1.282173
 C         4.763245         0.520245         0.419257
 C         3.920127         1.005717        -0.478708
 C         2.349702         0.920265        -0.726800
 O         1.829393        -0.338284        -1.310115
 H        -0.363582         0.879852         0.882578
 H        -0.480612         0.825474        -0.878493
 H        -0.615972        -0.660949         0.093113
 H         2.470820         0.297839         1.775698
 H         1.490184        -1.294553         1.844479
 H         4.949171        -0.478942         2.311966
 H         5.362047        -1.412119         0.910533
 H         5.782828         0.847288         0.533984
 H         4.303424         1.918925        -1.037675
 H         1.823902         1.727611        -1.249598
