19
Iteration:  4847
 C        -0.076931         0.448220         0.211619
 C         1.496160         0.001480         0.098823
 C         2.025387        -1.152825         0.977789
 O         3.388591        -1.556836         0.727734
 C         4.372031        -0.634607         1.321884
 C         4.780781         0.523627         0.426821
 C         3.925031         1.261295        -0.316246
 C         2.415096         1.088877        -0.461619
 O         2.034571        -0.101560        -1.262839
 H        -0.239723         1.314254         0.822063
 H        -0.547179         0.721779        -0.769455
 H        -0.784898        -0.348719         0.534930
 H         1.871603        -0.932720         2.126435
 H         1.504058        -1.976464         0.547461
 H         3.995116        -0.294154         2.284232
 H         5.068017        -1.477013         1.361319
 H         5.913786         0.601411         0.295762
 H         4.431181         2.002184        -0.985752
 H         1.722576         1.967355        -0.725123
