19
Iteration:  3538
 C         0.041414         0.352307         0.294131
 C         1.567406         0.086134         0.141584
 C         2.069382        -1.001314         1.090742
 O         3.320366        -1.362473         0.665802
 C         4.365955        -0.640966         1.288200
 C         4.714547         0.504002         0.468937
 C         3.925599         1.141627        -0.408917
 C         2.486002         0.980953        -0.653897
 O         1.873316        -0.230301        -1.233825
 H        -0.374833         1.255350        -0.153321
 H        -0.360052        -0.459630        -0.150265
 H        -0.257505         0.461619         1.343391
 H         2.065240        -0.700133         2.174508
 H         1.372843        -1.812267         0.990962
 H         4.070192        -0.193930         2.343108
 H         5.296980        -1.321439         1.351955
 H         5.720563         0.783994         0.620832
 H         4.338452         2.025296        -0.906499
 H         1.931765         1.847818        -1.143997
