19
Iteration:  3897charge 0 multiplicity 1
 C         0.080883         0.486824         0.322308
 C         1.467266         0.059397         0.007192
 C         2.108039        -0.852809         1.072329
 O         3.366815        -1.366168         0.690456
 C         4.550943        -0.779660         1.254738
 C         4.625043         0.637375         0.677350
 C         3.846399         1.136138        -0.294061
 C         2.424339         0.836467        -0.788711
 O         1.849248        -0.341863        -1.283144
 H        -0.154468         1.207806        -0.417362
 H        -0.762813        -0.268976         0.155972
 H        -0.030289         0.835049         1.376879
 H         2.206002        -0.351168         2.126200
 H         1.447829        -1.851446         1.278347
 H         4.527045        -0.815485         2.308127
 H         5.303415        -1.414443         0.757864
 H         5.558331         1.219322         0.939847
 H         4.008136         2.201755        -0.581319
 H         2.148283         1.750349        -1.444229
