19
Iteration:  2266charge 0 multiplicity 1
 C         0.071938         0.349161         0.256388
 C         1.536252         0.072869         0.104862
 C         2.061304        -0.936484         1.111866
 O         3.406469        -1.361066         1.059335
 C         4.304644        -0.364851         1.421924
 C         4.821741         0.516700         0.279627
 C         3.998872         0.959148        -0.644458
 C         2.465363         0.878479        -0.690737
 O         1.751621        -0.278101        -1.291632
 H        -0.247814         0.484140         1.344521
 H        -0.385976         1.263452        -0.229316
 H        -0.464629        -0.464046        -0.030842
 H         1.851666        -0.555661         2.103827
 H         1.435159        -1.814318         0.969152
 H         3.922172         0.165163         2.210542
 H         5.114860        -0.992386         1.876258
 H         5.850967         0.705118         0.184768
 H         4.270028         1.515056        -1.526456
 H         1.952033         1.693584        -1.217211
