19
Iteration:   712
 C         0.159153         0.422132         0.265006
 C         1.606933        -0.042573        -0.035897
 C         2.053363        -0.719486         1.171529
 O         3.350138        -1.449503         1.199656
 C         4.533442        -0.644721         1.399193
 C         4.644497         0.581574         0.427136
 C         3.813707         1.060187        -0.522306
 C         2.369530         0.885725        -0.825522
 O         1.810283        -0.312902        -1.486121
 H        -0.095774         1.301694         0.874183
 H        -0.367593         0.435168        -0.601272
 H        -0.368373        -0.317274         0.860799
 H         2.131265         0.076105         1.888878
 H         1.365918        -1.608948         1.524540
 H         4.502083        -0.189901         2.442139
 H         5.343315        -1.286485         1.273863
 H         5.662389         0.984347         0.414204
 H         4.203227         1.908048        -1.357443
 H         1.832190         1.845450        -1.247467
