19
Iteration:  1663charge 0 multiplicity 1
 C        -0.004605         0.323368         0.382403
 C         1.553960         0.043974        -0.023392
 C         2.041982        -0.769429         1.187935
 O         3.346425        -1.443666         1.070061
 C         4.375743        -0.495243         1.394770
 C         4.781266         0.504164         0.364501
 C         3.920323         1.047153        -0.534882
 C         2.495585         0.912025        -0.842561
 O         1.829523        -0.297111        -1.397447
 H        -0.292192         1.324081         0.815490
 H        -0.428101         0.216516        -0.571276
 H        -0.213677        -0.432954         1.051085
 H         1.978954        -0.292339         2.169016
 H         1.402264        -1.651203         1.195493
 H         4.215351         0.035138         2.395249
 H         5.282153        -1.181547         1.481166
 H         5.765785         0.887161         0.339293
 H         4.418142         1.781338        -1.345466
 H         2.028577         1.842571        -1.399518
