19
Iteration:   380
 C        -0.067549         0.375369         0.165367
 C         1.434513         0.071982         0.121939
 C         1.995097        -0.900081         1.228592
 O         3.382564        -1.166800         0.928134
 C         4.510645        -0.436873         1.429343
 C         4.977842         0.454204         0.264026
 C         3.953143         0.919929        -0.629443
 C         2.457374         0.840815        -0.652639
 O         1.709736        -0.341137        -1.201512
 H        -0.340909         0.804614         1.177198
 H        -0.373976         0.875791        -0.734889
 H        -0.356174        -0.722235         0.065418
 H         1.873594        -0.519993         2.199803
 H         1.611162        -1.945983         1.018828
 H         4.144613         0.126113         2.260181
 H         5.253471        -1.071892         1.710510
 H         6.036057         0.662840         0.037769
 H         4.363582         1.687832        -1.311667
 H         2.120013         1.803505        -1.130970
