19
Iteration:  4835charge 0 multiplicity 1
 C        -0.064904         0.331542         0.173222
 C         1.488099         0.061751         0.135130
 C         2.007887        -1.149642         0.968928
 O         3.334250        -1.539390         0.808183
 C         4.364990        -0.675198         1.269269
 C         4.819593         0.446152         0.335324
 C         3.907540         1.260639        -0.272168
 C         2.423407         1.057700        -0.476114
 O         2.031586         0.008583        -1.271357
 H        -0.152812         1.089516         0.962306
 H        -0.269068         0.775292        -0.868188
 H        -0.624808        -0.565344         0.480106
 H         1.760322        -0.956411         2.135958
 H         1.388286        -1.990233         0.836641
 H         4.059780        -0.209626         2.223534
 H         5.348812        -1.074180         1.641107
 H         5.916373         0.719578         0.210057
 H         4.216267         2.120565        -0.929314
 H         2.093393         2.063901        -0.846895
