19
Iteration:  1247
 C         0.001728         0.237700         0.361531
 C         1.474347         0.064289        -0.053537
 C         2.026090        -0.781154         1.137150
 O         3.365370        -1.360350         1.032850
 C         4.357606        -0.432488         1.446312
 C         4.798248         0.488656         0.368535
 C         3.997833         0.874186        -0.644814
 C         2.489888         0.897042        -0.728337
 O         1.847315        -0.207332        -1.371274
 H        -0.046835         0.819798         1.315701
 H        -0.689249         0.647991        -0.434639
 H        -0.327726        -0.742105         0.409738
 H         1.993115         0.106594         1.879320
 H         1.292122        -1.588032         1.405577
 H         4.135843         0.075676         2.425671
 H         5.107387        -1.194461         1.848624
 H         5.768227         0.917503         0.282353
 H         4.358688         1.440169        -1.418881
 H         2.203160         1.893120        -0.908047
