19
Iteration:  4692charge 0 multiplicity 1
 C         0.157852         0.546278         0.307690
 C         1.588861         0.040270         0.036850
 C         2.092655        -0.972249         1.039716
 O         3.334743        -1.578565         0.725967
 C         4.438579        -0.743045         1.204413
 C         4.589358         0.628924         0.653099
 C         3.803500         1.306553        -0.260783
 C         2.502169         0.904180        -0.733442
 O         1.835786        -0.289008        -1.356635
 H        -0.484742        -0.152778        -0.198646
 H        -0.085278         0.478571         1.464150
 H         0.198175         1.556469        -0.021633
 H         1.946006        -0.589091         2.083852
 H         1.376982        -1.816919         1.027150
 H         4.228976        -0.601846         2.339208
 H         5.399783        -1.320735         1.317667
 H         5.422703         1.162885         0.970214
 H         4.145534         2.281930        -0.620414
 H         1.991244         1.816319        -1.215404
