19
Iteration:  3628
 C        -0.003751         0.234785         0.326701
 C         1.555855         0.001252         0.055531
 C         2.036266        -1.035903         1.021537
 O         3.329949        -1.524188         0.963152
 C         4.402286        -0.658237         1.274261
 C         4.671757         0.494718         0.373425
 C         3.906018         1.190644        -0.477150
 C         2.426213         1.112512        -0.556807
 O         2.001505        -0.000167        -1.337731
 H        -0.461623         0.855793        -0.540253
 H        -0.485515        -0.619059         0.632987
 H        -0.052517         1.059581         1.060511
 H         1.783531        -0.536371         1.923953
 H         1.350617        -1.812826         0.988636
 H         4.284578        -0.358821         2.358928
 H         5.208018        -1.380355         1.292368
 H         5.782058         0.709570         0.237250
 H         4.297940         1.801471        -1.252874
 H         2.002868         2.070351        -0.879110
