19
Iteration:  4912charge 0 multiplicity 1
 C         0.164129         0.478159         0.489246
 C         1.479797         0.048655        -0.113825
 C         2.135065        -0.951901         0.791690
 O         3.371749        -1.584264         0.759433
 C         4.370954        -0.725668         1.350590
 C         4.591383         0.626788         0.756532
 C         3.855417         1.180883        -0.267278
 C         2.447560         0.983629        -0.737880
 O         1.862125        -0.220798        -1.412349
 H         0.529502         1.211076         1.223533
 H        -0.555695         0.929415        -0.300198
 H        -0.244781        -0.390801         1.123749
 H         1.945292        -0.788665         1.926373
 H         1.489654        -1.775380         0.570343
 H         4.145598        -0.706247         2.484608
 H         5.476713        -1.013857         1.124868
 H         5.563923         1.183617         0.991728
 H         4.255662         2.035699        -0.845517
 H         2.061249         1.976168        -1.056765
