19
Iteration:  1867
 C         0.089199         0.337312         0.198007
 C         1.583733         0.081444         0.134016
 C         1.969271        -0.841776         1.261360
 O         3.277270        -1.372775         0.960909
 C         4.335052        -0.489754         1.290396
 C         4.796220         0.495928         0.201928
 C         3.889166         1.195770        -0.537997
 C         2.482227         0.879810        -0.721090
 O         1.924033        -0.456472        -1.192829
 H        -0.062633         1.411185         0.651332
 H        -0.245403         0.541327        -0.812330
 H        -0.540690        -0.388557         0.628786
 H         2.037523        -0.316971         2.238594
 H         1.287831        -1.682985         1.372230
 H         4.171069        -0.083791         2.371961
 H         5.233207        -1.097449         1.573872
 H         5.812187         0.725585         0.362934
 H         4.310742         2.035177        -1.216263
 H         1.981995         1.684666        -1.338699
