19
Iteration:   610charge 0 multiplicity 1
 C        -0.003588         0.260510         0.143855
 C         1.513926         0.074683        -0.008845
 C         2.129856        -0.632103         1.209287
 O         3.330362        -1.397351         1.158230
 C         4.550241        -0.644661         1.294333
 C         4.654250         0.493875         0.370337
 C         3.845155         1.007218        -0.477364
 C         2.420665         0.978998        -0.774382
 O         1.844224        -0.312540        -1.329558
 H        -0.298929         0.392749         1.127157
 H        -0.417194         1.163455        -0.403174
 H        -0.419303        -0.633775        -0.244450
 H         2.289062         0.133215         2.008510
 H         1.467892        -1.363715         1.655246
 H         4.698678        -0.229944         2.303536
 H         5.418880        -1.334400         1.188109
 H         5.721133         0.785530         0.333158
 H         4.351215         1.600152        -1.099183
 H         2.007921         1.852820        -1.171326
