19
Iteration:  3220charge 0 multiplicity 1
 C         0.087697         0.277971         0.220000
 C         1.626080         0.032785         0.104143
 C         2.017573        -1.086521         1.076552
 O         3.364445        -1.625831         1.098170
 C         4.348126        -0.587615         1.258628
 C         4.626687         0.368260         0.162368
 C         3.875805         1.261997        -0.433426
 C         2.342243         1.238614        -0.556004
 O         2.043697        -0.013539        -1.320384
 H        -0.297801         1.047569        -0.457137
 H        -0.603507        -0.705657        -0.017612
 H        -0.156316         0.438074         1.450454
 H         1.779773        -0.694077         2.220396
 H         1.314763        -1.917193         0.724366
 H         3.999554        -0.070526         2.092009
 H         5.310521        -1.007888         1.511009
 H         5.748178         0.408910        -0.157704
 H         4.378572         1.994536        -1.017918
 H         1.858195         2.146507        -0.736724
