19
Iteration:  4620charge 0 multiplicity 1
 C        -0.050207         0.204156         0.073233
 C         1.541137         0.100062         0.142717
 C         2.000287        -1.004516         1.199428
 O         3.313153        -1.570463         0.877914
 C         4.349614        -0.605374         1.190686
 C         4.792180         0.383459         0.203893
 C         3.954743         1.232888        -0.384039
 C         2.486750         1.125130        -0.477418
 O         1.993248        -0.030773        -1.207344
 H        -0.413126        -0.233732        -0.869289
 H        -0.568384        -0.386258         0.772229
 H        -0.181503         1.289010         0.280284
 H         1.872521        -0.587908         2.202229
 H         1.264961        -1.836527         1.157108
 H         3.990765         0.032418         2.088472
 H         5.077139        -1.104371         1.830997
 H         5.945754         0.595976         0.160074
 H         4.261741         2.090219        -0.962992
 H         1.906147         2.006482        -0.731215
