19
Iteration:  1764
 C         0.018809         0.363753         0.475923
 C         1.540578         0.067477         0.041652
 C         2.059318        -0.935853         1.054423
 O         3.334085        -1.395523         1.032602
 C         4.370455        -0.299623         1.548381
 C         4.708344         0.574027         0.330817
 C         3.964098         0.882291        -0.694839
 C         2.537884         0.848762        -0.785407
 O         1.837141        -0.249014        -1.388107
 H         0.026864         0.485031         1.489597
 H        -0.347309         1.227826        -0.081242
 H        -0.683067        -0.441865         0.063087
 H         1.851257        -0.541137         2.035952
 H         1.397443        -1.881788         1.148162
 H         3.866946         0.099479         2.518035
 H         5.216837        -0.905447         1.634024
 H         5.802277         0.764518         0.248254
 H         4.509252         1.165745        -1.547881
 H         2.171896         1.805408        -1.433706
