19
Iteration:  1031
 C         0.049229         0.355385         0.053873
 C         1.583285         0.074184         0.129858
 C         2.061412        -0.660046         1.367557
 O         3.169183        -1.414682         1.088270
 C         4.397420        -0.637047         1.116486
 C         4.635406         0.515355         0.233673
 C         3.854121         1.239922        -0.517175
 C         2.437974         0.887182        -0.766907
 O         2.129756        -0.480674        -1.097471
 H        -0.476708         0.619535         0.917006
 H        -0.206802         1.041931        -0.820312
 H        -0.411416        -0.571072        -0.194432
 H         2.279175        -0.060100         2.221586
 H         1.234610        -1.267456         1.783374
 H         4.730877        -0.503074         2.229460
 H         5.136973        -1.364383         0.796900
 H         5.604192         1.010462         0.280860
 H         4.178775         2.048796        -1.060207
 H         1.868000         1.538252        -1.363608
