19
Iteration:   316charge 0 multiplicity 1
 C         0.278367         0.508874         0.378899
 C         1.612287         0.024195         0.083523
 C         2.010130        -0.912160         1.157397
 O         3.315135        -1.407809         1.218043
 C         4.379544        -0.536205         1.307955
 C         4.634362         0.447335         0.188965
 C         3.754725         1.272299        -0.606095
 C         2.397965         0.824917        -0.889043
 O         1.979073        -0.420862        -1.330068
 H         0.166077         1.036142         1.325575
 H        -0.265812         1.129513        -0.397118
 H        -0.513864        -0.280545         0.441776
 H         1.621509        -0.471961         2.198034
 H         1.376659        -1.873604         1.019874
 H         4.329733         0.141842         2.245978
 H         5.331720        -1.238472         1.444992
 H         5.578075         0.979202         0.336317
 H         4.085377         2.139863        -0.955586
 H         1.724975         1.608339        -1.287520
