19
Iteration:  3136charge 0 multiplicity 1
 C         0.103796         0.386937         0.440040
 C         1.521648         0.099125         0.109371
 C         2.060304        -1.103806         0.922872
 O         3.427506        -1.413371         0.695399
 C         4.241251        -0.556420         1.413226
 C         4.750254         0.589681         0.516653
 C         3.995272         1.044320        -0.466118
 C         2.494159         0.930387        -0.657975
 O         1.761760        -0.145314        -1.328461
 H        -0.321896         1.133732        -0.216124
 H        -0.408998        -0.486865         0.432968
 H         0.092696         0.762048         1.366081
 H         1.883613        -1.018690         2.063717
 H         1.494378        -2.034996         0.635753
 H         3.729668        -0.089290         2.330736
 H         5.077887        -1.201501         1.930824
 H         5.792647         0.974668         0.708735
 H         4.404357         1.768835        -1.220899
 H         2.172561         1.925095        -1.211397
