19
Iteration:    87
 C        -0.012511         0.266836         0.204741
 C         1.477642         0.092040         0.033729
 C         2.181377        -0.557741         1.256828
 O         3.312746        -1.400097         0.994168
 C         4.516795        -0.755146         1.243848
 C         4.614314         0.470080         0.387221
 C         3.800904         1.064661        -0.473988
 C         2.390968         0.946438        -0.857476
 O         1.998332        -0.330498        -1.220688
 H        -0.281362         1.129620         0.892830
 H        -0.442714         0.451696        -0.740806
 H        -0.426993        -0.702020         0.609773
 H         2.417685         0.333487         1.891539
 H         1.455591        -1.065601         1.888956
 H         4.680154        -0.461465         2.338744
 H         5.264305        -1.455242         1.011231
 H         5.618402         0.817467         0.423313
 H         4.189873         2.045101        -0.730830
 H         1.858202         1.736931        -1.460079
