19
Iteration:  1787charge 0 multiplicity 1
 C         0.088891         0.316184         0.387763
 C         1.539590         0.032492        -0.030828
 C         2.078231        -0.840037         1.125031
 O         3.376656        -1.362019         1.172386
 C         4.342784        -0.434168         1.493176
 C         4.812565         0.450289         0.299140
 C         3.973727         0.926036        -0.694744
 C         2.453955         0.913615        -0.800301
 O         1.735893        -0.202366        -1.406586
 H         0.076757         0.323711         1.402957
 H        -0.456329         1.131698        -0.123992
 H        -0.466463        -0.610730        -0.046878
 H         1.830630        -0.413361         2.074209
 H         1.575878        -1.876508         1.208166
 H         3.676325         0.179210         2.222809
 H         5.175555        -0.917573         1.888839
 H         5.905057         0.806722         0.339841
 H         4.433690         1.568730        -1.400001
 H         1.917193         1.939230        -1.132715
