19
Iteration:   847charge 0 multiplicity 1
 C         0.087964         0.189380         0.423901
 C         1.570279         0.138788        -0.026014
 C         2.056939        -0.798097         1.159855
 O         3.295767        -1.378579         1.140451
 C         4.381713        -0.472394         1.409882
 C         4.702017         0.504032         0.316656
 C         3.949639         0.920024        -0.621069
 C         2.461132         0.985149        -0.846622
 O         1.836291        -0.233039        -1.402095
 H         0.048982         0.285921         1.487307
 H        -0.599243         0.924642        -0.163468
 H        -0.219753        -0.842291         0.221524
 H         2.051788        -0.194945         2.049927
 H         1.215758        -1.474002         1.180094
 H         4.012423         0.125422         2.362440
 H         5.225887        -1.025512         1.741821
 H         5.776769         0.602232         0.320640
 H         4.540161         1.359890        -1.352600
 H         2.259854         1.898449        -1.423917
