19
Iteration:  1219charge 0 multiplicity 1
 C         0.075758         0.491120         0.184405
 C         1.557975         0.022782         0.043327
 C         2.079196        -0.905839         1.190021
 O         3.416898        -1.403157         1.084444
 C         4.434633        -0.502098         1.426809
 C         4.730893         0.512190         0.338249
 C         3.834501         1.099510        -0.546323
 C         2.426055         0.856945        -0.769570
 O         1.801272        -0.363868        -1.311633
 H        -0.107635         1.198016         0.990691
 H        -0.015539         0.984604        -0.797511
 H        -0.669278        -0.386156         0.237569
 H         1.755756        -0.417782         2.110232
 H         1.383347        -1.766176         1.203408
 H         4.191062         0.045164         2.336740
 H         5.258131        -1.217278         1.579640
 H         5.781487         0.726812         0.016074
 H         4.321057         1.836154        -1.308174
 H         1.889467         1.839596        -1.091525
