19
Iteration:  4018charge 0 multiplicity 1
 C         0.030904         0.264688         0.251786
 C         1.482177         0.001132        -0.004721
 C         2.085636        -0.991544         1.028054
 O         3.383165        -1.514076         0.975841
 C         4.439023        -0.628809         1.412948
 C         4.730263         0.384392         0.325881
 C         3.860924         1.086507        -0.451359
 C         2.403950         1.096615        -0.528710
 O         1.915504         0.108408        -1.394522
 H        -0.417670         0.953736        -0.366179
 H        -0.558672        -0.620494         0.051554
 H        -0.166469         0.414605         1.304013
 H         1.991869        -0.364909         1.900614
 H         1.443593        -1.972854         1.091127
 H         4.126885        -0.160688         2.442619
 H         5.334324        -1.272651         1.571656
 H         5.816561         0.676368         0.258692
 H         4.356980         1.611960        -1.232290
 H         1.847373         2.151113        -0.694584
