19
Iteration:  4356charge 0 multiplicity 1
 C         0.073058         0.408393         0.127603
 C         1.531067        -0.029358         0.030468
 C         2.068187        -1.033623         1.114489
 O         3.288695        -1.536533         0.820486
 C         4.439809        -0.806397         1.155552
 C         4.664430         0.500306         0.416042
 C         3.853334         1.312007        -0.239327
 C         2.382115         1.111923        -0.503119
 O         2.017321        -0.093298        -1.264767
 H        -0.469983        -0.232520         0.862507
 H        -0.167883         1.499471         0.426989
 H        -0.427483         0.139761        -0.799380
 H         1.910309        -0.590884         2.142039
 H         1.442108        -1.908214         1.034265
 H         4.527958        -0.579341         2.297879
 H         5.357593        -1.499133         1.056253
 H         5.690976         0.899917         0.443228
 H         4.228238         2.301295        -0.630925
 H         1.815095         1.961839        -0.907526
