19
Iteration:   801charge 0 multiplicity 1
 C         0.053320         0.593429         0.076884
 C         1.514812        -0.026368         0.099413
 C         2.000681        -1.018187         1.240049
 O         3.414964        -1.465204         1.083578
 C         4.395536        -0.409458         1.323133
 C         4.819192         0.597254         0.188159
 C         3.823284         1.076195        -0.579769
 C         2.371203         0.821560        -0.607171
 O         1.926427        -0.367679        -1.201138
 H        -0.127950         0.939953         1.086857
 H         0.142610         1.419036        -0.565951
 H        -0.701092        -0.125547        -0.196977
 H         1.934825        -0.537577         2.163167
 H         1.314971        -1.937147         1.118720
 H         3.977035         0.181340         2.255669
 H         5.242691        -0.934748         1.651193
 H         5.903968         0.681609         0.092490
 H         4.194727         1.740614        -1.499167
 H         1.868424         1.748019        -1.064987
