19
Iteration:  3239charge 0 multiplicity 1
 C         0.076180         0.289723         0.281992
 C         1.524404         0.038726         0.080718
 C         2.049080        -0.985050         1.049980
 O         3.305846        -1.495455         0.904169
 C         4.353806        -0.632592         1.338390
 C         4.723124         0.438187         0.242787
 C         3.886071         1.223431        -0.423544
 C         2.438852         1.059492        -0.550180
 O         1.984226        -0.072385        -1.267406
 H        -0.332071         1.060354        -0.325160
 H        -0.354241        -0.708943        -0.173822
 H        -0.172673         0.243505         1.395756
 H         1.900845        -0.640456         2.069244
 H         1.471840        -1.826119         0.767535
 H         4.164991        -0.057967         2.312602
 H         5.167199        -1.290545         1.447562
 H         5.805924         0.662943         0.141975
 H         4.147173         1.915139        -1.174244
 H         1.890146         2.023622        -0.850604
