19
Iteration:  2176
 C         0.184340         0.378470         0.391603
 C         1.596728         0.039740         0.039092
 C         2.010264        -0.955702         1.032503
 O         3.385233        -1.455464         1.222123
 C         4.391285        -0.413529         1.463204
 C         4.607238         0.523362         0.336858
 C         3.867876         1.012892        -0.700176
 C         2.352621         0.946056        -0.787925
 O         1.888774        -0.277985        -1.415945
 H         0.227900         1.240861         1.202327
 H        -0.332037         0.979821        -0.386768
 H        -0.291749        -0.441265         0.800206
 H         1.654762        -0.578274         1.954211
 H         1.375693        -1.833021         0.821694
 H         4.186067         0.092678         2.364396
 H         5.355665        -0.864858         1.649400
 H         5.741428         0.769383         0.147039
 H         4.543172         1.520029        -1.455295
 H         1.973763         1.940851        -1.256317
