19
Iteration:   163charge 0 multiplicity 1
 C        -0.006545         0.455771         0.008961
 C         1.496763         0.060400         0.047224
 C         2.117517        -0.651624         1.346121
 O         3.275293        -1.550284         1.280246
 C         4.525167        -0.723241         1.073526
 C         4.667708         0.560423         0.150468
 C         3.753285         1.286351        -0.432672
 C         2.383173         0.876874        -0.762330
 O         2.070761        -0.462183        -1.130905
 H        -0.483104         0.676053         1.034488
 H        -0.102006         1.409098        -0.553067
 H        -0.587047        -0.393965        -0.491376
 H         2.347903         0.197168         1.991236
 H         1.324421        -1.223721         1.818761
 H         4.875738        -0.490468         2.068508
 H         5.304768        -1.495332         0.610214
 H         5.679678         0.821240         0.187282
 H         4.003640         2.248982        -0.711945
 H         1.800286         1.530098        -1.462890
