19
Iteration:  2356
 C        -0.030763         0.500739         0.122618
 C         1.528608         0.043043         0.131229
 C         2.012482        -0.821610         1.280201
 O         3.299087        -1.377530         0.858135
 C         4.477410        -0.602804         1.167032
 C         4.736174         0.595289         0.366778
 C         3.850623         1.164212        -0.469482
 C         2.488543         0.870932        -0.704759
 O         1.965249        -0.516476        -1.120168
 H        -0.144043         1.469462         0.526271
 H        -0.351902         0.369366        -0.875585
 H        -0.565990        -0.270696         0.783119
 H         2.008102        -0.229106         2.195983
 H         1.324408        -1.668766         1.412126
 H         4.371206        -0.161455         2.240845
 H         5.418811        -1.324355         1.131846
 H         5.821433         0.996663         0.554777
 H         4.113574         2.017937        -1.119343
 H         1.964265         1.571907        -1.337966
