19
Iteration:  3200
 C         0.145431         0.270896         0.198482
 C         1.603556         0.027316         0.068866
 C         2.020931        -1.172105         1.006481
 O         3.370149        -1.622951         1.172580
 C         4.328719        -0.580517         1.294324
 C         4.636399         0.406186         0.084550
 C         3.869570         1.301232        -0.480919
 C         2.411645         1.117053        -0.391840
 O         1.953579         0.069919        -1.346994
 H        -0.095446         0.957538        -0.606464
 H        -0.500146        -0.571742         0.106310
 H        -0.166342         0.797557         1.140759
 H         1.808683        -0.605103         1.957545
 H         1.321499        -2.072001         1.064130
 H         3.982345         0.055110         2.184186
 H         5.291337        -1.123304         1.661312
 H         5.764619         0.417203        -0.122601
 H         4.257344         2.053640        -1.197947
 H         1.911224         1.974677        -0.711420
