19
Iteration:  4972charge 0 multiplicity 1
 C         0.012186         0.386713         0.120075
 C         1.493185         0.084857         0.087218
 C         2.021256        -1.095713         0.995631
 O         3.323828        -1.567170         0.745486
 C         4.393790        -0.612014         1.291071
 C         4.815678         0.524283         0.332611
 C         3.866904         1.281390        -0.299048
 C         2.454698         1.069279        -0.327382
 O         1.980834        -0.167287        -1.234934
 H        -0.415020         0.533594         1.108957
 H        -0.204221         1.283055        -0.421027
 H        -0.516267        -0.415448        -0.306047
 H         1.854439        -0.766326         2.123167
 H         1.392120        -2.063339         0.805275
 H         4.039770        -0.355943         2.325047
 H         5.142866        -1.333408         1.446003
 H         5.879976         0.691975         0.171178
 H         4.254650         1.983873        -1.054629
 H         1.955578         2.003095        -0.728980
