19
Iteration:  2089
 C         0.070547         0.533336         0.222543
 C         1.508753         0.087217         0.103515
 C         2.027150        -0.965091         1.157869
 O         3.324829        -1.418139         1.006435
 C         4.414416        -0.565953         1.299367
 C         4.697979         0.589932         0.287658
 C         3.839462         1.141941        -0.549657
 C         2.428887         0.888840        -0.787816
 O         2.014649        -0.439240        -1.149937
 H        -0.193343         1.046718         1.267005
 H        -0.254658         1.171102        -0.654365
 H        -0.574281        -0.284410         0.264192
 H         1.808629        -0.538688         2.196659
 H         1.514179        -1.946803         1.091997
 H         4.125262         0.029683         2.290036
 H         5.295608        -1.284868         1.562869
 H         5.815278         0.927668         0.207524
 H         4.197963         1.896051        -1.266810
 H         1.936730         1.644759        -1.420309
