19
Iteration:  3603charge 0 multiplicity 1
 C         0.112379         0.312068         0.181163
 C         1.621497         0.035774         0.043499
 C         2.058820        -1.020158         1.083923
 O         3.377135        -1.644371         1.113321
 C         4.448272        -0.660017         1.268192
 C         4.638498         0.377892         0.184134
 C         3.826620         1.263098        -0.357348
 C         2.351842         1.166079        -0.522521
 O         1.919599         0.019371        -1.370787
 H        -0.283386         0.664252        -0.720448
 H        -0.341444        -0.761312         0.506908
 H        -0.223793         1.037171         0.927635
 H         1.707782        -0.611812         2.013596
 H         1.357384        -1.846637         0.867333
 H         4.258326        -0.182316         2.170065
 H         5.374988        -1.379182         1.574621
 H         5.634170         0.592278        -0.001432
 H         4.204824         2.072434        -0.977629
 H         1.818127         2.193756        -0.771230
