19
Iteration:  4307
 C         0.086710         0.531677         0.302310
 C         1.518764         0.074339         0.065802
 C         2.042022        -1.001549         1.056215
 O         3.336069        -1.489365         0.609494
 C         4.400132        -0.778212         1.169369
 C         4.579124         0.591418         0.674945
 C         3.853683         1.288475        -0.263078
 C         2.476397         0.949494        -0.689044
 O         2.011464        -0.319897        -1.252772
 H        -0.458467        -0.021310         1.100184
 H         0.252626         1.524861         0.549973
 H        -0.676608         0.403623        -0.513045
 H         2.159583        -0.609052         2.065953
 H         1.335109        -1.963986         0.914837
 H         4.477905        -0.809167         2.303805
 H         5.337837        -1.244779         0.939339
 H         5.483536         1.175025         0.947182
 H         4.118308         2.264636        -0.574620
 H         1.875457         1.827926        -1.209237
