19
Iteration:  2929charge 0 multiplicity 1
 C         0.077233         0.387667         0.314257
 C         1.485500         0.086956         0.008935
 C         2.087316        -0.748515         1.150887
 O         3.276909        -1.536183         0.858505
 C         4.509954        -0.778176         1.082405
 C         4.683835         0.570676         0.562311
 C         3.776654         1.267265        -0.249394
 C         2.415520         0.927766        -0.814239
 O         2.005965        -0.311545        -1.310178
 H        -0.261810         1.520529         0.008793
 H        -0.580345        -0.467240        -0.193948
 H        -0.169482         0.205474         1.448487
 H         2.189261        -0.117269         2.140844
 H         1.311852        -1.513242         1.263382
 H         4.648704        -0.721480         2.122355
 H         5.301449        -1.441504         0.726402
 H         5.635877         1.075055         1.005317
 H         4.048487         2.237646        -0.550858
 H         1.864156         1.689325        -1.373448
