19
Iteration:  2042charge 0 multiplicity 1
 C         0.030270         0.200805         0.165528
 C         1.555154        -0.013458         0.010704
 C         2.058219        -0.643767         1.278745
 O         3.319145        -1.451723         1.195147
 C         4.510742        -0.601147         1.298175
 C         4.694879         0.433571         0.297879
 C         3.842005         1.026625        -0.544762
 C         2.329979         1.022285        -0.686767
 O         1.963771        -0.170674        -1.430400
 H        -0.220153         0.593073         1.184846
 H        -0.403704         0.888271        -0.553906
 H        -0.511762        -0.728342         0.315365
 H         2.198015         0.161635         2.003131
 H         1.247050        -1.344031         1.692361
 H         4.714742        -0.252019         2.433580
 H         5.285930        -1.305486         1.086158
 H         5.679336         0.693204         0.165165
 H         4.376537         1.614432        -1.266133
 H         1.797432         2.010255        -1.090431
