19
Iteration:  4836charge 0 multiplicity 1
 C        -0.080338         0.346940         0.170927
 C         1.493047         0.055071         0.139929
 C         2.012267        -1.147495         0.970011
 O         3.337152        -1.542464         0.801317
 C         4.362685        -0.672028         1.275928
 C         4.819974         0.455119         0.341723
 C         3.916476         1.260750        -0.272317
 C         2.415795         1.055167        -0.479110
 O         2.035469         0.002027        -1.271370
 H        -0.135110         1.066143         0.945609
 H        -0.274256         0.761684        -0.845539
 H        -0.641899        -0.533616         0.518218
 H         1.774337        -0.990806         2.110296
 H         1.393605        -2.006204         0.829575
 H         4.060918        -0.227921         2.221992
 H         5.332048        -1.101046         1.617119
 H         5.927511         0.715858         0.204649
 H         4.206516         2.106353        -0.942892
 H         2.065062         2.090268        -0.865393
