19
Iteration:   795
 C         0.083871         0.600609         0.047431
 C         1.481300        -0.056462         0.208965
 C         2.018705        -1.049757         1.210288
 O         3.403119        -1.440175         1.041060
 C         4.378017        -0.415108         1.350940
 C         4.818016         0.577230         0.201409
 C         3.816066         1.113610        -0.647806
 C         2.371774         0.830148        -0.598610
 O         1.949895        -0.391165        -1.185051
 H        -0.079278         1.103200         1.034203
 H         0.105383         1.478379        -0.754814
 H        -0.786914        -0.027585        -0.289555
 H         1.933275        -0.581546         2.285880
 H         1.264958        -1.795367         1.185463
 H         4.066050         0.103604         2.210736
 H         5.315798        -0.970995         1.716984
 H         5.896079         0.789326         0.107126
 H         4.079866         1.773552        -1.431723
 H         1.892982         1.685480        -0.984083
