19
Iteration:  4618charge 0 multiplicity 1
 C        -0.057065         0.218023         0.071338
 C         1.539061         0.098092         0.164382
 C         1.978885        -1.004874         1.192440
 O         3.316080        -1.585196         0.869420
 C         4.338598        -0.589029         1.201525
 C         4.805671         0.387598         0.182535
 C         3.963981         1.242952        -0.375395
 C         2.489693         1.117888        -0.470046
 O         2.004841        -0.037013        -1.201572
 H        -0.353761        -0.230841        -0.839903
 H        -0.570739        -0.441568         0.766754
 H        -0.188782         1.259686         0.219914
 H         1.897348        -0.531023         2.179000
 H         1.228903        -1.904302         1.152366
 H         4.008317         0.014901         2.056828
 H         5.088363        -1.020357         1.795956
 H         5.913367         0.539578         0.150962
 H         4.236534         2.055620        -0.993473
 H         1.852824         2.041312        -0.735109
