19
Iteration:  1367charge 0 multiplicity 1
 C         0.072868         0.350423         0.408548
 C         1.502027         0.102374        -0.034131
 C         2.059036        -0.776913         1.164498
 O         3.390734        -1.392485         0.944643
 C         4.345770        -0.415593         1.493815
 C         4.731041         0.535091         0.441561
 C         4.000963         0.987021        -0.625970
 C         2.453196         0.845316        -0.881296
 O         1.795756        -0.394633        -1.312872
 H         0.120190         1.072317         1.266769
 H        -0.419967         0.794836        -0.512440
 H        -0.408577        -0.552949         0.545029
 H         1.953955        -0.187036         2.042127
 H         1.252886        -1.607102         1.153308
 H         3.998123        -0.100267         2.468549
 H         5.219179        -1.060310         1.801550
 H         5.770772         0.808176         0.382510
 H         4.427843         1.702342        -1.231079
 H         2.067800         1.659020        -1.593302
