19
Iteration:  2691
 C         0.246888         0.532401         0.418903
 C         1.547856        -0.030877         0.004945
 C         2.073417        -1.167156         0.930335
 O         3.451647        -1.576917         1.011822
 C         4.351224        -0.566400         1.372371
 C         4.523506         0.554877         0.466196
 C         3.813277         1.200135        -0.451388
 C         2.460072         1.007370        -0.736049
 O         1.826230        -0.147886        -1.412755
 H         0.319302         1.620290         0.510006
 H        -0.544849         0.447825        -0.292342
 H        -0.079532         0.184849         1.298913
 H         1.721372        -0.943050         1.967705
 H         1.515018        -2.114246         0.641333
 H         4.106801         0.065988         2.311462
 H         5.389299        -1.159647         1.557632
 H         5.599100         0.792534         0.471400
 H         4.450521         1.935641        -0.934080
 H         1.826029         1.869943        -1.146120
