19
Iteration:  4752charge 0 multiplicity 1
 C         0.071250         0.378028         0.220563
 C         1.541884         0.006953        -0.002886
 C         1.980610        -1.009618         1.022108
 O         3.301770        -1.512121         0.790849
 C         4.493394        -0.692526         1.265639
 C         4.787140         0.507603         0.501800
 C         3.884544         1.280801        -0.196419
 C         2.466628         1.019872        -0.566312
 O         1.863285        -0.139837        -1.338747
 H        -0.582505        -0.343738         0.854472
 H        -0.178042         1.339315         0.630563
 H        -0.504021         0.332087        -0.779479
 H         1.855467        -0.341901         1.928798
 H         1.239491        -1.933230         0.958355
 H         4.231953        -0.547040         2.348193
 H         5.316769        -1.385811         1.080845
 H         5.910177         0.818123         0.519495
 H         4.383229         2.114058        -0.721401
 H         1.928441         1.959516        -0.951192
