19
Iteration:   424charge 0 multiplicity 1
 C         0.201230         0.450396         0.247156
 C         1.622744         0.015438         0.107222
 C         2.019275        -0.893824         1.283833
 O         3.310061        -1.460554         1.069105
 C         4.340584        -0.441301         1.366307
 C         4.667464         0.503277         0.189197
 C         3.859983         1.140008        -0.674811
 C         2.363363         0.911406        -0.761884
 O         1.952001        -0.417758        -1.262252
 H         0.064210         0.812381         1.287938
 H        -0.104969         1.281052        -0.397321
 H        -0.428743        -0.452975         0.075967
 H         1.980308        -0.284881         2.132927
 H         1.287781        -1.749845         1.325481
 H         4.060449         0.205347         2.237262
 H         5.146036        -0.998466         1.661627
 H         5.733504         0.819973         0.190188
 H         4.309912         1.889990        -1.290279
 H         1.809670         1.766674        -1.177475
