19
Iteration:  3851
 C         0.116080         0.424059         0.310459
 C         1.617533        -0.050356         0.017860
 C         2.128130        -0.908108         1.162216
 O         3.295628        -1.559917         0.932822
 C         4.390773        -0.750183         1.178833
 C         4.608590         0.595415         0.436589
 C         3.816573         1.312569        -0.355949
 C         2.377908         0.983884        -0.749503
 O         1.982491        -0.231026        -1.363328
 H        -0.229019         1.057492        -0.531489
 H        -0.627608        -0.415093         0.369806
 H         0.118488         0.879145         1.306228
 H         2.186509        -0.191826         2.090522
 H         1.280336        -1.686657         1.346171
 H         4.369363        -0.565872         2.204350
 H         5.213661        -1.434345         0.857670
 H         5.497733         0.957141         0.834225
 H         4.199327         2.355245        -0.574232
 H         1.821548         1.878046        -0.990615
