19
Iteration:  2007
 C        -0.029200         0.187889         0.084464
 C         1.520446         0.083259         0.090969
 C         2.062030        -0.607627         1.308182
 O         3.259299        -1.441972         1.107151
 C         4.514966        -0.627001         1.249143
 C         4.809254         0.412623         0.188574
 C         3.913830         1.160589        -0.432215
 C         2.398375         0.986958        -0.720868
 O         1.888052        -0.305395        -1.243637
 H        -0.369331         0.549345         0.978317
 H        -0.384020         0.817242        -0.730270
 H        -0.372890        -0.891935        -0.286919
 H         2.078800         0.135433         2.092985
 H         1.334942        -1.428343         1.668530
 H         4.699377        -0.140043         2.319190
 H         5.313977        -1.312617         1.169153
 H         5.843339         0.688180         0.212514
 H         4.309927         2.044756        -1.047215
 H         1.853845         1.805772        -1.363158
