19
Iteration:   999
 C        -0.091311         0.324798         0.103113
 C         1.441437        -0.016313        -0.006946
 C         2.133891        -0.567720         1.255160
 O         3.313480        -1.307797         1.116307
 C         4.660836        -0.695108         1.267271
 C         4.828460         0.496439         0.441075
 C         3.827297         1.065397        -0.399944
 C         2.390740         0.892370        -0.842687
 O         1.822715        -0.407520        -1.313879
 H        -0.290271         0.902874         0.909762
 H        -0.494340         0.837296        -0.806262
 H        -0.546712        -0.604344         0.184003
 H         2.366748         0.305761         1.899850
 H         1.308306        -1.206719         1.720603
 H         4.855190        -0.609872         2.378735
 H         5.225235        -1.442748         0.818290
 H         5.748854         1.068429         0.590367
 H         4.205586         1.944868        -0.847901
 H         2.086813         1.717300        -1.446116
