19
Iteration:  2860
 C        -0.030229         0.330186         0.131461
 C         1.443251         0.063174         0.113667
 C         2.029225        -0.836043         1.198130
 O         3.325687        -1.469037         0.851872
 C         4.497793        -0.797158         1.027991
 C         4.695419         0.528310         0.421242
 C         3.853161         1.291872        -0.259043
 C         2.427300         1.001667        -0.648292
 O         2.041126        -0.263754        -1.184206
 H        -0.233251         0.874669        -0.764937
 H        -0.642053        -0.590135         0.234860
 H        -0.350981         1.024785         0.948051
 H         2.223635        -0.282066         2.110676
 H         1.379074        -1.691745         1.380929
 H         4.611186        -0.662370         2.022792
 H         5.323920        -1.553778         0.724812
 H         5.613915         0.877005         0.703855
 H         4.272798         2.320182        -0.576385
 H         1.888529         1.894830        -1.247425
