19
Iteration:   593
 C         0.105778         0.293256         0.164979
 C         1.522156        -0.017205        -0.077629
 C         2.099990        -0.694859         1.241798
 O         3.368744        -1.391419         1.319912
 C         4.596823        -0.707657         1.381274
 C         4.694863         0.462005         0.347509
 C         3.836961         1.108008        -0.532716
 C         2.287642         0.993674        -0.789800
 O         1.806371        -0.262475        -1.452673
 H        -0.120552         0.586973         1.282249
 H        -0.212743         1.089256        -0.481159
 H        -0.660855        -0.514631        -0.062633
 H         2.167604         0.174428         1.926512
 H         1.317500        -1.484723         1.440600
 H         4.823007        -0.537066         2.495926
 H         5.276733        -1.469464         0.946695
 H         5.699222         0.879051         0.308538
 H         4.262029         2.048942        -1.155110
 H         1.857348         1.911539        -1.356365
