19
Iteration:  4357
 C         0.068237         0.402912         0.129992
 C         1.532585        -0.022204         0.029861
 C         2.067907        -1.033626         1.111899
 O         3.289743        -1.538823         0.825866
 C         4.437677        -0.810184         1.160645
 C         4.672183         0.502485         0.413679
 C         3.852386         1.305598        -0.238749
 C         2.375242         1.116794        -0.505556
 O         2.018547        -0.083651        -1.273454
 H        -0.486263        -0.246550         0.888781
 H        -0.196152         1.489357         0.428183
 H        -0.392251         0.133268        -0.830427
 H         1.911768        -0.608764         2.156420
 H         1.446307        -1.896799         1.092656
 H         4.536534        -0.591871         2.297551
 H         5.382053        -1.491239         1.050755
 H         5.672536         0.895148         0.435560
 H         4.233806         2.268562        -0.652559
 H         1.831420         1.941855        -0.889849
