19
Iteration:  2888charge 0 multiplicity 1
 C         0.060373         0.351006         0.145509
 C         1.484300         0.053933         0.111810
 C         2.123878        -0.693230         1.208630
 O         3.295665        -1.383867         0.632658
 C         4.525946        -0.833050         1.080033
 C         4.723888         0.593726         0.624153
 C         3.798037         1.186599        -0.210895
 C         2.383917         0.930275        -0.641063
 O         1.878746        -0.380777        -1.228159
 H        -0.051266         1.253012        -0.573464
 H        -0.504783        -0.525996        -0.277436
 H        -0.422407         0.691454         1.081716
 H         2.617258         0.065223         1.896355
 H         1.492535        -1.502286         1.716237
 H         4.458028        -0.853596         2.300345
 H         5.309799        -1.452871         0.678985
 H         5.720765         1.173871         0.807333
 H         4.245621         2.016620        -0.704618
 H         2.077732         1.765161        -1.179201
