19
Iteration:  2581
 C         0.050787         0.431400         0.238586
 C         1.608280        -0.023037         0.096287
 C         1.990392        -0.952866         1.115460
 O         3.353474        -1.617014         1.037274
 C         4.428479        -0.561879         1.308773
 C         4.666211         0.578522         0.306113
 C         3.868445         1.268768        -0.513374
 C         2.418688         0.945135        -0.664273
 O         1.945920        -0.233560        -1.297422
 H        -0.458093        -0.116297         0.981849
 H         0.029946         1.481356         0.429232
 H        -0.357987         0.378248        -0.674728
 H         1.883874        -0.520193         2.141981
 H         1.262524        -1.821472         0.988193
 H         4.292371        -0.120436         2.258921
 H         5.262222        -1.335802         1.412818
 H         5.640011         0.834139         0.061839
 H         4.293611         2.059889        -1.168163
 H         1.933785         2.001875        -0.877741
