19
Iteration:   333charge 0 multiplicity 1
 C         0.112110         0.455357         0.390522
 C         1.564418        -0.015460        -0.043893
 C         2.063491        -0.876269         1.175960
 O         3.340711        -1.485506         1.187375
 C         4.364322        -0.483804         1.336530
 C         4.641463         0.545564         0.278532
 C         3.824788         1.133480        -0.643920
 C         2.404936         0.981348        -0.799640
 O         1.957962        -0.418410        -1.315508
 H         0.391412         0.932647         1.391394
 H        -0.242156         1.189320        -0.287851
 H        -0.600261        -0.402483         0.516378
 H         2.099698        -0.266999         2.021870
 H         1.372650        -1.702169         1.224047
 H         4.159275         0.106860         2.237692
 H         5.245895        -1.027896         1.432065
 H         5.717671         0.656012         0.129299
 H         4.420586         1.815930        -1.467406
 H         1.893317         1.741242        -1.433275
