19
Iteration:   827charge 0 multiplicity 1
 C         0.057134         0.329333         0.304969
 C         1.578311         0.048301         0.027636
 C         2.030915        -0.881661         1.129371
 O         3.352467        -1.336216         1.140921
 C         4.384920        -0.469310         1.481300
 C         4.729458         0.431564         0.218392
 C         3.966224         1.071519        -0.656302
 C         2.401408         0.912696        -0.773325
 O         1.850943        -0.300213        -1.333688
 H        -0.065488         0.497200         1.398291
 H        -0.179974         1.326201        -0.266656
 H        -0.585110        -0.558440         0.069719
 H         1.893369        -0.305872         2.078727
 H         1.407753        -1.762981         1.053178
 H         4.150388         0.155205         2.377931
 H         5.236517        -1.177466         1.712983
 H         5.790834         0.625180         0.321387
 H         4.360845         1.774718        -1.240929
 H         1.901500         1.771117        -1.166667
