19
Iteration:  2133charge 0 multiplicity 1
 C         0.124560         0.524646         0.293585
 C         1.521389        -0.020628         0.037468
 C         2.063917        -0.924253         1.153878
 O         3.388664        -1.383549         0.855946
 C         4.333051        -0.434537         1.429539
 C         4.799461         0.664043         0.422035
 C         3.931836         1.046850        -0.552524
 C         2.470589         0.689749        -0.762539
 O         1.713215        -0.411441        -1.302037
 H         0.332153         1.346888         1.107347
 H        -0.104165         1.091784        -0.620562
 H        -0.510314        -0.176823         0.600199
 H         2.003480        -0.536886         2.165548
 H         1.437119        -1.823786         1.116703
 H         3.957613         0.021515         2.429109
 H         5.269895        -1.033781         1.724301
 H         5.807656         1.196471         0.669958
 H         4.233092         1.944618        -1.135064
 H         1.946640         1.599313        -1.147006
