19
Iteration:  2142charge 0 multiplicity 1
 C         0.137804         0.506212         0.352908
 C         1.487804         0.007241         0.082013
 C         2.042036        -0.925186         1.106745
 O         3.430629        -1.396344         0.922900
 C         4.402782        -0.401280         1.471064
 C         4.738650         0.591879         0.452425
 C         3.961552         1.049980        -0.553280
 C         2.468172         0.737353        -0.857208
 O         1.706317        -0.407937        -1.387043
 H         0.140129         1.264182         1.225086
 H        -0.344440         0.907976        -0.531333
 H        -0.637235        -0.107834         0.663577
 H         1.883975        -0.474383         2.052025
 H         1.457627        -1.860002         1.087425
 H         4.032380         0.002626         2.403163
 H         5.265037        -0.999336         1.649156
 H         5.743870         1.100885         0.606781
 H         4.265478         1.898851        -1.182744
 H         2.081237         1.801556        -1.171987
