19
Iteration:  3821
 C         0.024518         0.326460         0.117767
 C         1.520569         0.045058         0.098521
 C         2.015064        -0.923350         1.123811
 O         3.279667        -1.507966         0.896355
 C         4.473524        -0.683491         1.188222
 C         4.780369         0.481465         0.243629
 C         3.833715         1.265019        -0.330578
 C         2.375488         1.071697        -0.529326
 O         2.069893        -0.190055        -1.128117
 H        -0.469873         0.766900        -0.750292
 H        -0.640249        -0.758895         0.223722
 H        -0.366712         0.982200         0.947890
 H         1.971569        -0.551407         2.141711
 H         1.327484        -1.845577         1.137401
 H         4.273422        -0.267341         2.272394
 H         5.210667        -1.428969         0.972430
 H         5.820070         0.661616        -0.134958
 H         4.095566         2.085559        -1.007547
 H         1.859758         2.005246        -0.990774
