19
Iteration:  3639
 C         0.053924         0.319401         0.358093
 C         1.525652         0.033346         0.024168
 C         1.974197        -0.984704         1.065376
 O         3.314119        -1.490604         0.830474
 C         4.401332        -0.628201         1.298064
 C         4.765514         0.533314         0.396468
 C         3.914765         1.152251        -0.414903
 C         2.448729         1.004514        -0.570064
 O         1.936120        -0.079412        -1.342810
 H        -0.495800         0.595474        -0.630513
 H        -0.350561        -0.624191         0.449691
 H        -0.160602         0.840208         1.319599
 H         1.799743        -0.664603         2.065015
 H         1.469922        -1.872416         0.877626
 H         4.154417        -0.280889         2.319766
 H         5.325097        -1.205635         1.303084
 H         5.866171         0.844527         0.426325
 H         4.416088         1.866125        -1.029384
 H         1.908535         1.941272        -0.756886
