19
Iteration:  1196charge 0 multiplicity 1
 C         0.098669         0.626005         0.152654
 C         1.561391        -0.007082         0.083096
 C         1.989389        -1.005551         1.205592
 O         3.359774        -1.447688         1.101781
 C         4.388320        -0.513390         1.241108
 C         4.659196         0.598868         0.278586
 C         3.822568         1.164314        -0.589840
 C         2.415256         0.884508        -0.727159
 O         2.025219        -0.501243        -1.150578
 H         0.192672         1.309696         1.025435
 H         0.053183         1.282129        -0.789165
 H        -0.817655        -0.032350         0.285925
 H         1.612394        -0.663684         2.186603
 H         1.340917        -1.834465         0.979594
 H         4.279308         0.018159         2.190526
 H         5.208546        -1.270623         1.364080
 H         5.623030         1.128979         0.362396
 H         4.134385         2.047038        -1.151791
 H         1.946555         1.683303        -1.352290
