19
Iteration:  3592
 C         0.119485         0.288268         0.163042
 C         1.615452         0.045133         0.128807
 C         2.072245        -1.056960         1.047838
 O         3.339585        -1.563196         1.112924
 C         4.415631        -0.668754         1.227565
 C         4.698920         0.353102         0.158700
 C         3.777491         1.284682        -0.292984
 C         2.395931         1.078900        -0.530521
 O         1.900736         0.029531        -1.367864
 H        -0.100346         0.668119        -0.775163
 H        -0.664943        -0.488296         0.226646
 H        -0.114751         0.985715         0.982306
 H         1.953832        -0.623725         1.989369
 H         1.427867        -1.940520         0.961651
 H         4.248234         0.049770         2.001656
 H         5.422664        -1.262257         1.532694
 H         5.706590         0.555117         0.022602
 H         4.250937         2.085201        -0.869345
 H         1.828765         2.091462        -0.778118
