19
Iteration:  2916charge 0 multiplicity 1
 C        -0.049226         0.386878         0.299176
 C         1.484177         0.104949         0.019429
 C         2.125746        -0.757768         1.185312
 O         3.301088        -1.450461         0.746688
 C         4.554981        -0.869558         1.137893
 C         4.651516         0.623110         0.580773
 C         3.816449         1.196462        -0.259084
 C         2.435312         0.933768        -0.773860
 O         1.976561        -0.365110        -1.309287
 H        -0.344819         1.402060        -0.074535
 H        -0.714263        -0.297988        -0.293922
 H        -0.251739         0.378211         1.399066
 H         2.418703         0.004040         1.951149
 H         1.488448        -1.443209         1.686094
 H         4.631969        -0.836649         2.246179
 H         5.375480        -1.558494         0.712090
 H         5.385287         1.317925         0.960184
 H         4.083719         2.258857        -0.423249
 H         2.201548         1.873644        -1.407392
