19
Iteration:  3743
 C         0.120691         0.343907         0.365013
 C         1.536359         0.062697         0.037356
 C         2.082277        -0.939549         1.020746
 O         3.360862        -1.567148         0.940282
 C         4.418654        -0.700781         1.281672
 C         4.650909         0.485536         0.419464
 C         3.840455         1.233398        -0.380543
 C         2.366632         1.059028        -0.726284
 O         1.948503        -0.154915        -1.395332
 H        -0.175643         1.337662         0.100660
 H        -0.662228        -0.462394         0.062480
 H        -0.021603         0.378455         1.452821
 H         2.045894        -0.410185         1.926387
 H         1.359113        -1.799042         1.153176
 H         4.314110        -0.303511         2.363549
 H         5.298259        -1.182639         1.430323
 H         5.595341         0.890535         0.557158
 H         4.227206         2.172840        -0.771548
 H         1.825929         1.869455        -1.174381
