19
Iteration:  4180
 C         0.032332         0.344146         0.156591
 C         1.513971         0.029907         0.088420
 C         1.975945        -1.065589         1.118066
 O         3.339244        -1.462952         0.807374
 C         4.335180        -0.546935         1.275740
 C         4.797705         0.395886         0.252927
 C         3.937278         1.245265        -0.354231
 C         2.421114         1.068896        -0.429664
 O         2.010100        -0.145188        -1.227519
 H        -0.320074        -0.034217        -0.772831
 H        -0.513124        -0.278571         0.909829
 H        -0.231011         1.429000         0.352967
 H         1.831386        -0.763513         2.237426
 H         1.435565        -1.915128         0.898978
 H         3.765224         0.099866         1.995221
 H         5.184840        -1.153767         1.714007
 H         5.857993         0.313084        -0.172957
 H         4.260732         1.939012        -1.104392
 H         1.929476         1.912902        -0.589191
