19
Iteration:  3975
 C         0.042806         0.189018         0.175377
 C         1.565542         0.018597         0.037847
 C         2.000441        -0.988155         1.066627
 O         3.319421        -1.592194         1.152061
 C         4.468886        -0.712235         1.230699
 C         4.666762         0.421699         0.228916
 C         3.883378         1.294705        -0.407769
 C         2.447459         1.169684        -0.572410
 O         1.940644         0.059704        -1.313301
 H        -0.229631         0.653039        -0.713812
 H        -0.479301        -0.803061         0.272380
 H        -0.178017         0.802633         1.023856
 H         1.681952        -0.366719         1.956193
 H         1.241675        -1.865895         0.806507
 H         4.569334        -0.256169         2.343991
 H         5.292938        -1.438041         1.239173
 H         5.766446         0.437864         0.143487
 H         4.444611         2.033683        -0.905360
 H         1.772333         2.083091        -0.653566
