19
Iteration:  1445charge 0 multiplicity 1
 C         0.137395         0.462760         0.055364
 C         1.580464         0.088694         0.146925
 C         1.989752        -0.855282         1.242844
 O         3.286320        -1.466769         1.133028
 C         4.392566        -0.526074         1.142165
 C         4.688328         0.472836         0.180729
 C         3.785398         1.253426        -0.529516
 C         2.352666         0.870857        -0.761418
 O         2.092310        -0.477216        -1.053806
 H         0.070547         1.423492         0.671157
 H        -0.097138         0.717829        -0.981475
 H        -0.482554        -0.214154         0.642550
 H         1.897705        -0.353073         2.175422
 H         1.190981        -1.665744         1.058253
 H         4.374244        -0.009153         2.163325
 H         5.161037        -1.315640         1.251697
 H         5.763269         0.828050         0.193356
 H         4.204018         2.231804        -0.964683
 H         1.690182         1.713347        -1.151069
