19
Iteration:   117
 C        -0.006533         0.162056         0.184534
 C         1.487786         0.188878         0.058634
 C         2.097512        -0.460285         1.325521
 O         3.158489        -1.344796         0.898016
 C         4.455112        -0.757950         1.136573
 C         4.847868         0.588931         0.457426
 C         3.977829         1.175580        -0.475172
 C         2.444686         0.841321        -0.805622
 O         1.877137        -0.473285        -1.159233
 H        -0.520967         0.415926         1.238051
 H        -0.572135         0.668108        -0.526144
 H        -0.226362        -0.993682         0.045043
 H         2.481902         0.323320         1.945538
 H         1.333046        -1.046277         1.901863
 H         4.607817        -0.647895         2.206567
 H         5.214439        -1.681505         0.808758
 H         5.939066         0.842635         0.506297
 H         4.436088         2.112550        -0.997165
 H         2.023426         1.706898        -1.489989
