19
Iteration:   356charge 0 multiplicity 1
 C         0.038806         0.358999         0.277130
 C         1.534065         0.021584         0.113850
 C         2.071824        -0.807366         1.215050
 O         3.379149        -1.365985         0.984811
 C         4.402618        -0.426668         1.431175
 C         4.784214         0.484214         0.301358
 C         3.895156         0.950840        -0.674002
 C         2.410143         0.858852        -0.747798
 O         1.810494        -0.285777        -1.301603
 H        -0.169960         0.911808         1.264081
 H        -0.196659         0.889302        -0.562497
 H        -0.496962        -0.644601         0.206026
 H         2.146747        -0.179996         2.053105
 H         1.422077        -1.679885         1.373935
 H         4.082343         0.058451         2.362432
 H         5.252781        -0.978197         1.583977
 H         5.796278         0.859317         0.332583
 H         4.462428         1.493344        -1.569098
 H         1.967656         1.882381        -0.939060
