19
Iteration:  1331
 C         0.174453         0.566291         0.213616
 C         1.496957        -0.081110         0.135030
 C         1.964645        -1.052659         1.210938
 O         3.305902        -1.408861         1.087952
 C         4.377680        -0.358779         1.410917
 C         4.690322         0.571656         0.195935
 C         3.903300         1.100408        -0.653491
 C         2.443985         0.843785        -0.712828
 O         1.968107        -0.390182        -1.269047
 H        -0.122946         0.931416         1.184818
 H         0.235654         1.407293        -0.455664
 H        -0.704654        -0.093403         0.030066
 H         1.790035        -0.833732         2.242590
 H         1.443120        -2.038388         1.030097
 H         4.093516         0.321056         2.257666
 H         5.231829        -0.877660         1.577322
 H         5.768350         0.695233         0.128451
 H         4.275494         1.934449        -1.343862
 H         1.935782         1.726377        -1.310011
