19
Iteration:  1783
 C         0.059214         0.311040         0.401757
 C         1.519776         0.055685        -0.022515
 C         2.045070        -0.857917         1.119537
 O         3.414739        -1.362128         1.156610
 C         4.316766        -0.424520         1.478418
 C         4.782783         0.466769         0.333216
 C         4.028720         0.883629        -0.689932
 C         2.445963         0.922309        -0.838186
 O         1.763963        -0.202747        -1.419746
 H        -0.028600         0.258571         1.552888
 H        -0.419253         1.187170        -0.013005
 H        -0.446747        -0.604747         0.136186
 H         1.845491        -0.317972         2.113066
 H         1.533858        -1.802368         1.145548
 H         3.825012         0.215624         2.200741
 H         5.266292        -0.915509         1.906737
 H         5.780984         0.763905         0.353087
 H         4.370522         1.590431        -1.479292
 H         1.980412         1.852143        -1.059845
