19
Iteration:  3154
 C        -0.043560         0.355751         0.408521
 C         1.530396         0.063200         0.047702
 C         2.055839        -1.062480         0.888650
 O         3.437158        -1.450700         0.754700
 C         4.347418        -0.471022         1.463124
 C         4.785116         0.477066         0.439959
 C         3.975639         1.033076        -0.482162
 C         2.452651         1.011460        -0.584821
 O         1.837986        -0.087464        -1.300819
 H        -0.451570         0.919574        -0.401708
 H        -0.619927        -0.644014         0.355066
 H        -0.387528         0.893557         1.401986
 H         1.775775        -0.842116         1.892828
 H         1.491135        -2.000537         0.665557
 H         3.947835        -0.000505         2.400547
 H         5.139930        -1.132354         1.774014
 H         5.898286         0.490943         0.289345
 H         4.521095         1.596290        -1.170829
 H         1.991616         1.925959        -0.609475
