19
Iteration:  1373charge 0 multiplicity 1
 C         0.072277         0.330916         0.381355
 C         1.535739         0.107469        -0.022742
 C         2.056300        -0.762586         1.199319
 O         3.415818        -1.351400         0.940922
 C         4.331073        -0.460735         1.496940
 C         4.717477         0.530827         0.448233
 C         4.027903         0.958438        -0.581316
 C         2.409140         0.825813        -0.945303
 O         1.776412        -0.364512        -1.348466
 H        -0.020426         1.065867         1.164943
 H        -0.426759         0.801624        -0.440985
 H        -0.450729        -0.625367         0.834653
 H         2.030137        -0.010624         2.070208
 H         1.467951        -1.646947         1.233082
 H         4.017003        -0.155574         2.576858
 H         5.195858        -1.099001         1.711049
 H         5.789713         0.798082         0.469219
 H         4.459119         1.712659        -1.341203
 H         2.007892         1.720779        -1.443465
