19
Iteration:   882charge 0 multiplicity 1
 C         0.078869         0.360028         0.182833
 C         1.522738         0.000951         0.076026
 C         2.047298        -0.853228         1.214088
 O         3.345839        -1.340512         1.061791
 C         4.480168        -0.467937         1.398200
 C         4.778952         0.453395         0.298210
 C         3.899937         0.998099        -0.590578
 C         2.403791         0.902700        -0.698176
 O         1.816733        -0.290768        -1.329960
 H        -0.151100         0.951926         1.107352
 H        -0.201082         1.082293        -0.663674
 H        -0.600747        -0.526592         0.102647
 H         1.917896        -0.168697         2.052359
 H         1.483253        -1.724859         1.427903
 H         4.198845         0.226508         2.289199
 H         5.284219        -1.182856         1.700046
 H         5.791358         0.768824         0.143317
 H         4.216726         1.672432        -1.264100
 H         1.864227         1.741291        -1.130468
