19
Iteration:  2253charge 0 multiplicity 1
 C         0.062099         0.350152         0.259753
 C         1.570939         0.030804         0.135322
 C         1.999212        -1.017392         1.136057
 O         3.361180        -1.290447         0.955328
 C         4.351391        -0.316972         1.488469
 C         4.771538         0.446937         0.227537
 C         3.919952         0.918113        -0.690293
 C         2.449710         0.963256        -0.688800
 O         1.854656        -0.270707        -1.191088
 H        -0.470382         0.553200         1.302815
 H        -0.036208         1.177684        -0.521182
 H        -0.315511        -0.531405        -0.170585
 H         1.727294        -0.686011         2.174608
 H         1.499881        -1.988541         0.936054
 H         3.926135         0.345335         2.215104
 H         5.211818        -0.800556         1.929556
 H         5.864120         0.529029         0.042133
 H         4.485702         1.312871        -1.557688
 H         2.100924         2.043240        -0.951059
