19
Iteration:  3966charge 0 multiplicity 1
 C         0.030004         0.246625         0.170548
 C         1.576697         0.096098         0.124155
 C         2.018332        -0.988523         1.050256
 O         3.316767        -1.579622         1.107691
 C         4.426797        -0.724139         1.206744
 C         4.684128         0.432746         0.274020
 C         3.875678         1.259192        -0.431994
 C         2.388124         1.140395        -0.521739
 O         2.024193        -0.014609        -1.325676
 H        -0.326639         0.718487        -0.766913
 H        -0.624692        -0.739784         0.248058
 H        -0.345419         0.842842         0.995145
 H         1.779399        -0.704185         2.160045
 H         1.413186        -1.962917         0.934951
 H         4.421087        -0.279301         2.187829
 H         5.274888        -1.322740         1.040956
 H         5.699407         0.686604         0.097257
 H         4.247132         2.151637        -0.903225
 H         1.959735         2.046656        -0.923515
