19
Iteration:  1784
 C         0.066129         0.313984         0.400198
 C         1.524512         0.049810        -0.025932
 C         2.052653        -0.850998         1.120982
 O         3.406731        -1.360650         1.161725
 C         4.322228        -0.429796         1.482271
 C         4.791902         0.462849         0.325153
 C         4.017334         0.893460        -0.691936
 C         2.447955         0.919724        -0.829984
 O         1.756869        -0.202077        -1.416548
 H         0.001669         0.267087         1.504209
 H        -0.428800         1.167524        -0.040176
 H        -0.452520        -0.615412         0.088960
 H         1.839568        -0.345629         2.106948
 H         1.553596        -1.829379         1.166105
 H         3.770777         0.199236         2.198318
 H         5.245851        -0.914864         1.896260
 H         5.803578         0.774534         0.352053
 H         4.374470         1.580664        -1.452513
 H         1.948478         1.885116        -1.077624
