19
Iteration:  3114charge 0 multiplicity 1
 C         0.268595         0.573693         0.520290
 C         1.561736        -0.059692         0.065394
 C         2.052072        -1.164920         0.893916
 O         3.373493        -1.464763         0.754764
 C         4.244705        -0.565156         1.388622
 C         4.613925         0.655123         0.554891
 C         3.943088         1.174714        -0.472363
 C         2.483826         0.872752        -0.682138
 O         1.805588        -0.231662        -1.398765
 H        -0.001085         1.439396        -0.078496
 H        -0.485549        -0.132126         0.468142
 H         0.361877         0.836257         1.485543
 H         1.767780        -0.981716         2.053650
 H         1.460544        -2.053034         0.527776
 H         3.766179        -0.417594         2.340500
 H         5.289583        -0.971206         1.613906
 H         5.631643         1.118599         0.762974
 H         4.287603         2.033435        -1.048996
 H         1.984956         1.900039        -1.018283
