19
Iteration:  1422charge 0 multiplicity 1
 C         0.020260         0.520197         0.145635
 C         1.498865        -0.014218         0.030140
 C         2.064958        -0.918215         1.283230
 O         3.320233        -1.395831         1.134559
 C         4.501507        -0.554217         1.287445
 C         4.726421         0.527485         0.296839
 C         3.855193         1.207108        -0.562369
 C         2.403587         0.857373        -0.725433
 O         1.937649        -0.425133        -1.259064
 H        -0.132885         1.595679         0.531109
 H        -0.273266         0.639858        -0.934223
 H        -0.623132        -0.032353         0.771300
 H         1.935526        -0.296029         2.142517
 H         1.393657        -1.873830         1.261228
 H         4.441855        -0.087245         2.346023
 H         5.283854        -1.348257         1.295287
 H         5.762599         0.930427         0.215528
 H         4.322392         1.881338        -1.287559
 H         1.859824         1.682975        -1.366200
