19
Iteration:  4866
 C         0.125043         0.497189         0.245612
 C         1.534647         0.004896         0.102984
 C         2.012092        -1.133857         0.891515
 O         3.392074        -1.472503         0.649655
 C         4.342521        -0.667675         1.327805
 C         4.649469         0.583068         0.549451
 C         3.870520         1.190240        -0.302396
 C         2.446762         1.020852        -0.477472
 O         1.926360        -0.183823        -1.291776
 H         0.266493         1.445378         0.880426
 H        -0.331438         0.597947        -0.841160
 H        -0.436518        -0.157272         0.929114
 H         1.966586        -0.908075         2.021399
 H         1.494163        -2.069378         0.744267
 H         3.941031        -0.442569         2.379967
 H         5.318473        -1.333181         1.323581
 H         5.672595         0.986485         0.671663
 H         4.151796         2.052639        -0.936115
 H         2.035366         1.865849        -0.917131
