19
Iteration:  4212
 C         0.024057         0.335852         0.085636
 C         1.508000        -0.003022         0.221025
 C         1.961921        -1.107602         1.155769
 O         3.306651        -1.558695         0.839476
 C         4.301205        -0.612532         1.210698
 C         4.706897         0.449429         0.210912
 C         3.948322         1.306943        -0.468267
 C         2.465133         1.121696        -0.480535
 O         2.090125        -0.090011        -1.125756
 H        -0.386220        -0.291802        -0.672306
 H        -0.476396         0.195177         1.058047
 H        -0.215302         1.368046        -0.344339
 H         1.847615        -0.901888         2.262553
 H         1.442714        -1.961484         0.910195
 H         4.043721        -0.108155         2.095893
 H         5.256570        -1.038228         1.546437
 H         5.865553         0.570916         0.104946
 H         4.361964         2.174917        -0.926901
 H         1.875518         1.956425        -0.633525
