19
Iteration:  4706
 C         0.213803         0.580320         0.276685
 C         1.554160         0.069173         0.077871
 C         2.097529        -1.018205         1.026746
 O         3.351210        -1.534523         0.628383
 C         4.309352        -0.730505         1.235352
 C         4.592220         0.664235         0.661432
 C         3.802134         1.247476        -0.246263
 C         2.428247         0.959110        -0.721201
 O         1.939651        -0.369626        -1.246341
 H        -0.612315        -0.178368         0.040130
 H         0.002687         0.737462         1.389480
 H        -0.039652         1.501606        -0.317694
 H         2.321837        -0.664526         2.068958
 H         1.306662        -1.897619         0.841640
 H         4.243189        -0.636185         2.383666
 H         5.237574        -1.206717         0.933445
 H         5.707645         1.008586         0.850996
 H         4.238991         2.144782        -0.673778
 H         1.914307         1.863152        -1.324095
