19
Iteration:  2407
 C        -0.055039         0.187215         0.124086
 C         1.500876         0.107270         0.055716
 C         2.153926        -0.580456         1.253001
 O         3.278856        -1.525990         1.153951
 C         4.476728        -0.711018         1.175982
 C         4.761048         0.465464         0.303908
 C         3.873817         1.155469        -0.468051
 C         2.426468         1.011698        -0.725733
 O         1.928968        -0.281422        -1.300757
 H        -0.527411         1.287848         0.056219
 H        -0.420623        -0.511102        -0.672198
 H        -0.239338        -0.184847         1.078063
 H         2.290137         0.205804         2.052305
 H         1.281920        -1.141153         1.605528
 H         4.628528        -0.378100         2.175295
 H         5.238417        -1.371731         0.953953
 H         5.687027         0.800928         0.559519
 H         4.101790         2.128773        -0.883624
 H         1.925792         1.920326        -1.160174
