19
Iteration:   678
 C         0.016911         0.522652         0.092512
 C         1.514531         0.013421         0.090551
 C         1.982983        -0.885033         1.310298
 O         3.348881        -1.451428         1.118775
 C         4.489422        -0.608145         1.227399
 C         4.711671         0.553819         0.271773
 C         3.796479         1.197209        -0.557972
 C         2.396077         0.903443        -0.784692
 O         2.020132        -0.431204        -1.178769
 H        -0.055061         1.289113         0.849744
 H        -0.147515         1.027994        -0.819657
 H        -0.634816        -0.311065         0.215125
 H         1.787950        -0.307265         2.223362
 H         1.388283        -1.879710         1.413269
 H         4.540787        -0.102659         2.218293
 H         5.317463        -1.276156         1.264730
 H         5.732722         0.982695         0.330356
 H         4.340286         2.113673        -1.056401
 H         1.875234         1.678613        -1.429246
