19
Iteration:  4293charge 0 multiplicity 1
 C         0.159678         0.483850         0.313151
 C         1.557022         0.013999        -0.015863
 C         2.137686        -0.901208         0.965056
 O         3.348396        -1.486585         0.687286
 C         4.436630        -0.788827         1.228946
 C         4.568298         0.598719         0.694455
 C         3.828823         1.186274        -0.281082
 C         2.424318         0.997542        -0.635747
 O         1.861290        -0.269057        -1.328181
 H        -0.265023        -0.174657         1.136701
 H        -0.082286         1.516040         0.712921
 H        -0.272449         0.407358        -0.663174
 H         2.046474        -0.430626         1.992364
 H         1.389588        -1.726744         1.158601
 H         4.390446        -0.791378         2.279741
 H         5.336487        -1.391448         0.856637
 H         5.331145         1.067167         1.199328
 H         4.323668         2.146178        -0.560071
 H         2.040907         1.852801        -1.059256
