19
Iteration:  2463
 C        -0.006534         0.358286         0.138801
 C         1.534628         0.012240         0.035863
 C         2.007224        -0.778362         1.250280
 O         3.240651        -1.467070         1.079232
 C         4.493815        -0.740000         1.082962
 C         4.734588         0.527035         0.263537
 C         3.851844         1.373840        -0.418372
 C         2.412754         0.935339        -0.665831
 O         2.046728        -0.371827        -1.161161
 H        -0.327684         0.582586        -1.016137
 H        -0.696337        -0.445487         0.498413
 H        -0.170872         1.268797         0.741069
 H         2.178459         0.033214         1.993535
 H         1.440177        -1.587528         1.711199
 H         4.694734        -0.520114         2.128773
 H         5.197884        -1.491115         0.877631
 H         5.733601         0.793157         0.477821
 H         4.046683         2.336851        -0.970136
 H         1.911646         1.657762        -1.329724
