19
Iteration:   868charge 0 multiplicity 1
 C         0.004547         0.262126         0.307353
 C         1.498837         0.017299         0.010146
 C         2.110580        -0.744138         1.184164
 O         3.378924        -1.417845         1.081219
 C         4.367029        -0.495888         1.489046
 C         4.728249         0.504988         0.290310
 C         3.984698         0.953870        -0.676710
 C         2.456885         0.932848        -0.786618
 O         1.820182        -0.216912        -1.346815
 H        -0.166887         0.617427         1.282414
 H        -0.453037         0.939111        -0.490931
 H        -0.497257        -0.688105         0.223692
 H         2.113553        -0.079826         2.050738
 H         1.298725        -1.479037         1.465745
 H         4.068339        -0.047682         2.500162
 H         5.249345        -1.003429         1.705747
 H         5.790762         0.716314         0.296357
 H         4.478105         1.527959        -1.535348
 H         2.068047         1.950703        -1.025199
