19
Iteration:  1036
 C         0.077898         0.341005         0.042918
 C         1.573087         0.116998         0.101254
 C         2.047978        -0.696064         1.402544
 O         3.151998        -1.446759         1.083829
 C         4.344940        -0.660868         1.113326
 C         4.649913         0.540488         0.219548
 C         3.800769         1.255050        -0.555488
 C         2.420951         0.903493        -0.771673
 O         2.207605        -0.485175        -1.040035
 H        -0.369146         0.712128         1.052225
 H        -0.148219         1.094228        -0.662442
 H        -0.509789        -0.584144        -0.256994
 H         2.303433         0.063445         2.247186
 H         1.288645        -1.423791         1.781551
 H         4.649832        -0.351344         2.113620
 H         5.123207        -1.402647         0.800377
 H         5.682185         0.935964         0.202515
 H         4.394065         2.140915        -1.101307
 H         1.791585         1.588847        -1.453528
