19
Iteration:   239charge 0 multiplicity 1
 C         0.010741         0.257881         0.256101
 C         1.522000         0.095659         0.033630
 C         2.098068        -0.622597         1.220699
 O         3.299183        -1.270609         0.843822
 C         4.452183        -0.634754         1.366382
 C         4.822303         0.429900         0.334610
 C         3.900675         1.148655        -0.477072
 C         2.465754         0.876068        -0.773130
 O         1.795003        -0.452587        -1.208968
 H        -0.221788         1.141181         0.928244
 H        -0.499833         0.454416        -0.671072
 H        -0.489814        -0.669487         0.668919
 H         2.339055         0.200903         1.889061
 H         1.475253        -1.447516         1.591662
 H         4.174843        -0.232118         2.361892
 H         5.302925        -1.487480         1.459835
 H         5.798262         0.838670         0.343150
 H         4.329931         1.969347        -0.873403
 H         1.965655         1.662864        -1.355010
