19
Iteration:  4221charge 0 multiplicity 1
 C         0.058744         0.316482         0.126005
 C         1.571706         0.033291         0.193765
 C         1.954948        -1.161649         1.146253
 O         3.292798        -1.486712         0.874835
 C         4.353452        -0.651187         1.221654
 C         4.677285         0.463538         0.264684
 C         3.917461         1.326689        -0.414708
 C         2.440038         1.109617        -0.511162
 O         2.059917        -0.080408        -1.218788
 H        -0.462002        -0.505650        -0.394860
 H        -0.401512         0.356705         1.074341
 H        -0.132768         1.327277        -0.379539
 H         1.768588        -0.836898         2.167920
 H         1.327166        -2.071247         1.046684
 H         4.195821        -0.187902         2.187239
 H         5.157154        -1.378157         1.358889
 H         5.853470         0.573516         0.047099
 H         4.493473         1.950024        -1.024029
 H         1.823420         2.084487        -0.854648
