19
Iteration:  1030charge 0 multiplicity 1
 C         0.048035         0.357960         0.050834
 C         1.581704         0.065552         0.136115
 C         2.061029        -0.651781         1.361969
 O         3.175632        -1.409234         1.088968
 C         4.407308        -0.633640         1.120558
 C         4.631427         0.511295         0.238417
 C         3.860750         1.237000        -0.511571
 C         2.441690         0.884592        -0.765854
 O         2.114051        -0.480347        -1.108487
 H        -0.513168         0.632240         0.952853
 H        -0.214811         1.033178        -0.839686
 H        -0.407338        -0.610069        -0.197349
 H         2.272917        -0.059347         2.223929
 H         1.233211        -1.239697         1.765439
 H         4.725667        -0.523071         2.217981
 H         5.173286        -1.396416         0.782765
 H         5.636039         1.019012         0.309655
 H         4.140834         2.043880        -1.059472
 H         1.881894         1.548678        -1.357836
