19
Iteration:  4677charge 0 multiplicity 1
 C         0.111739         0.467214         0.349022
 C         1.512417         0.013963        -0.052634
 C         2.045870        -1.011367         1.015626
 O         3.390752        -1.530069         0.860342
 C         4.467827        -0.739320         1.286242
 C         4.643333         0.570209         0.582865
 C         3.911796         1.229106        -0.320184
 C         2.415224         0.953996        -0.739041
 O         1.862531        -0.187719        -1.411033
 H        -0.667351         0.140662        -0.365669
 H        -0.105874         0.335168         1.354116
 H        -0.246561         1.539057         0.276073
 H         2.052911        -0.414354         1.951313
 H         1.342648        -1.787479         1.173404
 H         4.439361        -0.563749         2.390468
 H         5.265663        -1.399210         0.878267
 H         5.440051         1.130949         1.147919
 H         4.113671         2.320899        -0.405954
 H         1.963044         1.841536        -1.026091
