19
Iteration:  3877
 C         0.097973         0.490231         0.357390
 C         1.553803         0.121618        -0.049876
 C         2.130702        -0.827068         1.056383
 O         3.379288        -1.530635         0.859348
 C         4.557879        -0.749519         1.196606
 C         4.536303         0.618452         0.677715
 C         3.806313         1.198735        -0.296822
 C         2.428718         0.935924        -0.815934
 O         1.813733        -0.369959        -1.373764
 H        -0.343696         1.189720        -0.351269
 H        -0.655566        -0.578222         0.302883
 H         0.153530         0.720088         1.457334
 H         2.179404        -0.231290         2.034447
 H         1.290024        -1.639191         1.136874
 H         4.693112        -0.800873         2.306530
 H         5.361846        -1.302603         0.733152
 H         5.479463         1.123678         1.101290
 H         4.365732         2.041147        -0.683646
 H         1.988762         1.893458        -1.282047
