19
Iteration:  1340
 C         0.118581         0.529857         0.284848
 C         1.529857        -0.015849         0.100495
 C         1.980602        -0.984377         1.163163
 O         3.366839        -1.373008         1.076267
 C         4.304793        -0.383923         1.348134
 C         4.759763         0.533979         0.285285
 C         3.891428         1.087712        -0.645334
 C         2.436959         0.828856        -0.758982
 O         1.947678        -0.424987        -1.267130
 H         0.117597         0.952467         1.270820
 H        -0.064209         1.288875        -0.442797
 H        -0.689860        -0.229855        -0.033076
 H         1.618515        -0.671790         2.214192
 H         1.372229        -1.846181         0.975043
 H         4.018647         0.151568         2.349165
 H         5.206628        -0.939120         1.616740
 H         5.838008         0.830334         0.333551
 H         4.365220         1.844526        -1.394883
 H         1.870247         1.695813        -1.124051
