19
Iteration:  2826
 C         0.136173         0.276115         0.186507
 C         1.612458         0.005166         0.042130
 C         1.964046        -0.961049         1.168102
 O         3.283992        -1.554542         1.093677
 C         4.391012        -0.786545         1.066697
 C         4.604603         0.441667         0.274915
 C         3.801912         1.424223        -0.338542
 C         2.374010         1.120871        -0.526488
 O         2.112433        -0.111227        -1.330757
 H        -0.258161         0.436915        -0.754636
 H        -0.459534        -0.512418         0.635399
 H         0.070185         1.175558         0.797576
 H         1.845467        -0.432183         2.130302
 H         1.232381        -1.753283         1.235498
 H         4.687730        -0.469449         2.045402
 H         5.259643        -1.530363         0.835729
 H         5.649852         0.645121         0.238842
 H         4.291863         2.334340        -0.840172
 H         1.675131         1.986827        -0.966092
