19
Iteration:  1757
 C         0.076311         0.434071         0.410940
 C         1.541093         0.028911         0.023612
 C         2.037693        -0.950048         1.075483
 O         3.361794        -1.359610         1.008259
 C         4.319107        -0.350129         1.524164
 C         4.743942         0.601327         0.364381
 C         3.968507         0.893133        -0.691347
 C         2.485943         0.857087        -0.788182
 O         1.836391        -0.295427        -1.328157
 H        -0.068375         0.495193         1.535524
 H        -0.241646         1.386010        -0.087376
 H        -0.496444        -0.504028         0.237992
 H         1.754870        -0.550567         2.094929
 H         1.531512        -1.925814         0.899683
 H         3.814687         0.014345         2.436392
 H         5.260588        -0.898717         1.747293
 H         5.844844         0.807037         0.136798
 H         4.273139         1.215581        -1.706581
 H         2.031700         1.744315        -1.167136
