19
Iteration:   256
 C         0.034832         0.410384         0.199786
 C         1.498120         0.033694         0.116756
 C         2.128518        -0.700303         1.280548
 O         3.337315        -1.302116         0.835244
 C         4.463150        -0.566722         1.278594
 C         4.788402         0.510912         0.403008
 C         3.806911         0.941910        -0.478578
 C         2.365966         0.809303        -0.747515
 O         1.865155        -0.382002        -1.253023
 H        -0.129211         1.332940         0.786507
 H        -0.237724         0.564866        -0.891336
 H        -0.396812        -0.498593         0.637259
 H         2.376803        -0.109829         2.218575
 H         1.434024        -1.551795         1.547684
 H         4.310855        -0.048699         2.265745
 H         5.240358        -1.210836         1.432838
 H         5.798000         1.056134         0.485099
 H         4.297694         1.854668        -1.149326
 H         1.975980         1.751880        -1.243212
