19
Iteration:  4710
 C         0.157688         0.586777         0.279421
 C         1.548146         0.065418         0.094441
 C         2.065520        -1.047972         1.003892
 O         3.336310        -1.503598         0.601804
 C         4.322310        -0.724347         1.255561
 C         4.584011         0.635860         0.658571
 C         3.805470         1.246496        -0.276940
 C         2.442857         0.989607        -0.726603
 O         1.981914        -0.385749        -1.215814
 H        -0.615863        -0.221067         0.222336
 H         0.046369         0.784496         1.300312
 H         0.046346         1.476111        -0.394657
 H         2.328073        -0.676628         1.997001
 H         1.363912        -1.876568         0.930053
 H         4.379582        -0.635066         2.327130
 H         5.287841        -1.176358         0.978451
 H         5.613325         1.040684         0.817956
 H         4.335115         2.145756        -0.656397
 H         1.953207         1.811360        -1.126651
