19
Iteration:   797
 C         0.071147         0.602343         0.049387
 C         1.495413        -0.046489         0.175148
 C         2.011650        -1.044049         1.218902
 O         3.410020        -1.449072         1.056563
 C         4.379814        -0.412252         1.341949
 C         4.829362         0.586541         0.197253
 C         3.804078         1.098403        -0.623129
 C         2.365151         0.820777        -0.598508
 O         1.943568        -0.380559        -1.189085
 H        -0.069967         1.050859         1.062908
 H         0.117124         1.432694        -0.667662
 H        -0.759127        -0.045904        -0.269855
 H         1.944427        -0.555307         2.267064
 H         1.245786        -1.817220         1.151244
 H         4.040911         0.108621         2.215875
 H         5.323792        -0.971622         1.714249
 H         5.918562         0.742352         0.112671
 H         4.155305         1.827463        -1.540102
 H         1.894964         1.699362        -1.009828
