19
Iteration:  2476charge 0 multiplicity 1
 C        -0.015867         0.406557         0.039664
 C         1.436491         0.047146         0.100772
 C         2.060634        -0.771811         1.345576
 O         3.297475        -1.444848         0.935834
 C         4.479357        -0.693105         1.114777
 C         4.731616         0.538535         0.281039
 C         3.840905         1.301473        -0.319070
 C         2.446286         0.943713        -0.696653
 O         2.006803        -0.475806        -1.153301
 H        -0.518492         0.386086        -0.911052
 H        -0.498358        -0.246047         0.748696
 H        -0.097100         1.479742         0.442752
 H         2.137136        -0.214970         2.319405
 H         1.258919        -1.504551         1.453195
 H         4.713708        -0.437089         2.111091
 H         5.250970        -1.378696         0.715126
 H         5.787184         0.947946         0.287005
 H         4.324705         2.195656        -0.777860
 H         1.964041         1.695317        -1.255867
