19
Iteration:   636charge 0 multiplicity 1
 C        -0.002235         0.285216         0.147356
 C         1.526792         0.059229         0.110305
 C         2.011891        -0.713997         1.336623
 O         3.179280        -1.338098         0.891478
 C         4.422436        -0.599202         1.283176
 C         4.795812         0.518682         0.276935
 C         3.935317         1.163215        -0.560503
 C         2.475055         0.911697        -0.776219
 O         2.002753        -0.453101        -1.122887
 H        -0.414842         0.480656         1.206099
 H        -0.377121         1.089506        -0.433187
 H        -0.565452        -0.613310        -0.228218
 H         2.370768        -0.078865         2.184648
 H         1.359105        -1.604378         1.706579
 H         4.234723        -0.098155         2.244947
 H         5.171688        -1.307657         1.359219
 H         5.830510         0.879991         0.387879
 H         4.476344         2.071565        -1.140499
 H         1.965266         1.808754        -1.356529
