19
Iteration:   171
 C         0.085472         0.451588        -0.011637
 C         1.552010         0.056381         0.071564
 C         2.120475        -0.676469         1.355705
 O         3.297231        -1.560048         1.319364
 C         4.465079        -0.707816         1.031765
 C         4.625515         0.528106         0.179928
 C         3.722137         1.350060        -0.402279
 C         2.418054         0.897093        -0.775595
 O         1.993565        -0.494010        -1.152650
 H        -0.424088         0.697763         1.009357
 H        -0.056230         1.255834        -0.600663
 H        -0.642899        -0.268223        -0.530984
 H         2.474359         0.119471         1.996176
 H         1.317020        -1.361316         1.754840
 H         4.808876        -0.324340         1.974636
 H         5.232040        -1.535794         0.653452
 H         5.678870         0.901523         0.152832
 H         4.046507         2.230139        -1.061195
 H         1.991195         1.819279        -1.349303
