19
Iteration:  3140
 C         0.071742         0.382029         0.420759
 C         1.498273         0.092419         0.129599
 C         2.086737        -1.085755         0.921442
 O         3.426377        -1.410977         0.709014
 C         4.252272        -0.564110         1.429096
 C         4.773166         0.570367         0.508534
 C         4.006670         1.042375        -0.465260
 C         2.493302         0.948576        -0.641529
 O         1.769523        -0.134988        -1.339144
 H        -0.426679         1.132666        -0.311419
 H        -0.491803        -0.655570         0.423113
 H         0.034867         0.806445         1.517645
 H         1.921248        -0.984267         2.072175
 H         1.525290        -1.922195         0.541142
 H         3.647963        -0.198604         2.219358
 H         5.074059        -1.057957         1.869313
 H         5.770755         0.898869         0.590164
 H         4.369642         1.705978        -1.277985
 H         2.201792         1.857291        -1.162456
