19
Iteration:  4946
 C         0.148930         0.455773         0.286604
 C         1.521373        -0.019862         0.027037
 C         2.055443        -1.106783         1.055164
 O         3.362827        -1.569710         0.756305
 C         4.355061        -0.664076         1.289330
 C         4.646629         0.583097         0.513746
 C         3.895589         1.273698        -0.324594
 C         2.452730         0.980929        -0.640131
 O         1.902660        -0.106792        -1.363487
 H         0.144950         0.915463         1.286226
 H        -0.219142         1.215082        -0.424515
 H        -0.682370        -0.342843         0.230374
 H         1.906219        -0.718537         2.129196
 H         1.559911        -2.012316         0.886794
 H         4.060574        -0.522114         2.383655
 H         5.228279        -1.409573         1.317802
 H         5.600211         0.947285         0.913683
 H         4.291197         2.233081        -0.643910
 H         1.900729         1.956487        -0.824720
