19
Iteration:   154
 C        -0.061028         0.423657         0.045482
 C         1.447713         0.017163         0.095266
 C         2.090124        -0.598694         1.354507
 O         3.256297        -1.426906         1.182290
 C         4.566421        -0.775607         1.060540
 C         4.722458         0.476678         0.243364
 C         3.766015         1.259409        -0.498009
 C         2.339265         0.907186        -0.776826
 O         2.138298        -0.467509        -1.140879
 H        -0.379680         0.528605         1.068952
 H        -0.210074         1.407127        -0.578564
 H        -0.599623        -0.399622        -0.425076
 H         2.236044         0.190733         2.154004
 H         1.353499        -1.225352         1.837602
 H         4.944335        -0.486549         2.107253
 H         5.259837        -1.543695         0.730181
 H         5.679857         0.956667         0.321592
 H         4.055433         2.245487        -0.683385
 H         1.841791         1.580800        -1.436645
