19
Iteration:  2756charge 0 multiplicity 1
 C         0.049029         0.368859         0.328213
 C         1.497563         0.072902         0.144987
 C         2.016460        -0.985303         1.065056
 O         3.324510        -1.341435         0.647237
 C         4.413377        -0.645705         1.329984
 C         4.742820         0.565777         0.496799
 C         3.996202         1.073111        -0.420525
 C         2.437453         0.929890        -0.572733
 O         1.889233        -0.213653        -1.326493
 H        -0.260489         1.053083        -0.501261
 H        -0.529032        -0.475326        -0.039992
 H        -0.114991         0.733811         1.312700
 H         1.972685        -0.661526         2.071392
 H         1.347819        -1.906032         0.987588
 H         3.929481        -0.378609         2.209965
 H         5.186004        -1.359554         1.747833
 H         5.800228         1.039190         0.672517
 H         4.326162         1.853773        -1.082650
 H         2.034712         1.904555        -0.941126
