19
Iteration:  4768
 C         0.019112         0.261592         0.176711
 C         1.506653         0.105472        -0.010866
 C         2.098263        -0.954685         1.033099
 O         3.367693        -1.550425         0.919350
 C         4.426866        -0.802109         1.304292
 C         4.709963         0.426413         0.425824
 C         3.893074         1.253923        -0.292234
 C         2.395437         1.124711        -0.507679
 O         1.902396        -0.017838        -1.406442
 H        -0.316723        -0.401730         0.940522
 H        -0.036780         1.378293         0.294539
 H        -0.559887        -0.033538        -0.663771
 H         1.967599        -0.638617         2.077694
 H         1.490609        -1.784127         1.078183
 H         4.318615        -0.384753         2.317923
 H         5.233637        -1.587005         1.354863
 H         5.688061         0.799764         0.395762
 H         4.276603         2.166691        -0.753604
 H         1.970175         2.071081        -0.764196
