19
Iteration:   676charge 0 multiplicity 1
 C         0.013300         0.520454         0.103579
 C         1.508856         0.029802         0.104792
 C         1.980502        -0.896252         1.301590
 O         3.329456        -1.439160         1.103412
 C         4.483959        -0.599953         1.223326
 C         4.718185         0.555555         0.258491
 C         3.805104         1.208926        -0.554548
 C         2.405130         0.898059        -0.785118
 O         2.040676        -0.450296        -1.165778
 H        -0.099768         1.244691         0.860173
 H        -0.136450         1.064452        -0.869287
 H        -0.612028        -0.332168         0.184568
 H         1.782316        -0.345061         2.190447
 H         1.336648        -1.762622         1.399848
 H         4.528345        -0.122433         2.267192
 H         5.374001        -1.337470         1.282046
 H         5.720891         1.013476         0.260079
 H         4.260550         2.037152        -1.032677
 H         1.890101         1.634455        -1.321903
