19
Iteration:  1138
 C         0.014989         0.326378         0.198725
 C         1.522061         0.095320         0.008143
 C         2.121845        -0.643866         1.244173
 O         3.344174        -1.366235         0.983113
 C         4.489291        -0.682656         1.413898
 C         4.700903         0.510430         0.442463
 C         3.830030         1.084593        -0.502886
 C         2.414701         0.850363        -0.868067
 O         1.858958        -0.394972        -1.318398
 H        -0.190673         1.162230         0.980490
 H        -0.436251         0.749256        -0.760622
 H        -0.585993        -0.585551         0.408534
 H         2.476174         0.237192         1.881085
 H         1.471526        -1.311971         1.766041
 H         4.524055        -0.287945         2.432595
 H         5.434532        -1.341031         1.247216
 H         5.655018         1.050726         0.586612
 H         4.272412         1.896261        -0.925583
 H         1.944245         1.587140        -1.451921
