19
Iteration:  3535charge 0 multiplicity 1
 C         0.037618         0.365868         0.296192
 C         1.573312         0.108112         0.132591
 C         2.078972        -1.007698         1.104325
 O         3.328515        -1.354073         0.655504
 C         4.370478        -0.650956         1.298150
 C         4.702886         0.492160         0.483530
 C         3.919643         1.156552        -0.410843
 C         2.497822         0.971396        -0.664681
 O         1.845986        -0.246396        -1.240079
 H        -0.275190         1.261663        -0.090822
 H        -0.355978        -0.548910        -0.183492
 H        -0.198135         0.432967         1.331274
 H         2.068786        -0.702388         2.096350
 H         1.324553        -1.852188         1.044346
 H         4.051884        -0.235646         2.267959
 H         5.304812        -1.384610         1.438250
 H         5.721855         0.942522         0.620616
 H         4.361801         2.086915        -0.863820
 H         1.979479         1.857216        -1.147499
