19
Iteration:   804charge 0 multiplicity 1
 C         0.052276         0.570033         0.116223
 C         1.511578        -0.020879         0.056206
 C         1.995631        -1.002633         1.235315
 O         3.411047        -1.472564         1.101362
 C         4.397060        -0.396402         1.315937
 C         4.792008         0.589205         0.191615
 C         3.860297         1.069068        -0.560505
 C         2.394108         0.852873        -0.628253
 O         1.911268        -0.366299        -1.218770
 H        -0.218327         0.879869         1.136049
 H         0.122819         1.519454        -0.593634
 H        -0.687125        -0.221398        -0.159957
 H         1.884009        -0.476233         2.214255
 H         1.479782        -1.960870         1.142321
 H         3.996839         0.196718         2.179221
 H         5.271039        -0.961921         1.633643
 H         5.866704         0.681401         0.042549
 H         4.147819         1.578878        -1.323407
 H         1.892382         1.714751        -1.063727
