19
Iteration:  3241charge 0 multiplicity 1
 C         0.072103         0.298478         0.275683
 C         1.526633         0.025678         0.071773
 C         2.051887        -0.972202         1.046589
 O         3.307259        -1.481924         0.887556
 C         4.351694        -0.633583         1.339743
 C         4.737180         0.447574         0.259905
 C         3.899308         1.221871        -0.426933
 C         2.433149         1.050694        -0.547501
 O         1.967062        -0.084772        -1.261009
 H        -0.373567         1.079853        -0.331664
 H        -0.398085        -0.729726        -0.174312
 H        -0.184774         0.213475         1.462418
 H         1.902609        -0.617362         2.149387
 H         1.440788        -1.826589         0.760850
 H         4.150542        -0.145432         2.283025
 H         5.174901        -1.271047         1.435292
 H         5.858984         0.693488         0.170471
 H         4.174315         1.901276        -1.170830
 H         1.949920         1.986888        -0.801133
