19
Iteration:   553charge 0 multiplicity 1
 C         0.117563         0.388285         0.203675
 C         1.551026         0.000409         0.037956
 C         2.000010        -0.846428         1.226928
 O         3.255714        -1.430885         1.190764
 C         4.431542        -0.617435         1.247826
 C         4.676961         0.533421         0.248651
 C         3.865513         1.246984        -0.593490
 C         2.387393         0.987874        -0.767678
 O         2.028984        -0.400594        -1.224705
 H         0.171868         1.109693         1.048166
 H        -0.209266         0.786955        -0.725732
 H        -0.517386        -0.486550         0.525797
 H         1.651991        -0.285785         2.143867
 H         1.369966        -1.721401         1.277459
 H         4.566381        -0.107296         2.177531
 H         5.223671        -1.484745         1.142211
 H         5.729929         0.783963         0.166855
 H         4.297771         2.082121        -1.271466
 H         1.745797         1.777033        -1.140521
