19
Iteration:  4693charge 0 multiplicity 1
 C         0.168713         0.547946         0.305375
 C         1.591863         0.044594         0.034961
 C         2.103852        -0.968170         1.044318
 O         3.338444        -1.579966         0.717726
 C         4.426045        -0.739519         1.200561
 C         4.588225         0.633866         0.657343
 C         3.801808         1.304690        -0.255188
 C         2.490355         0.899735        -0.727159
 O         1.840013        -0.293350        -1.348351
 H        -0.474016        -0.153016        -0.220549
 H        -0.068970         0.520779         1.472611
 H         0.157901         1.570966        -0.040527
 H         1.923339        -0.615973         2.092849
 H         1.348632        -1.837693         1.019706
 H         4.189495        -0.635593         2.329576
 H         5.370083        -1.323435         1.294533
 H         5.486318         1.153667         0.967070
 H         4.124797         2.262001        -0.647208
 H         1.981149         1.818521        -1.273561
