19
Iteration:  1893charge 0 multiplicity 1
 C        -0.033453         0.382956         0.244019
 C         1.483551         0.059395        -0.007415
 C         2.151924        -0.706932         1.194473
 O         3.343736        -1.358339         1.005132
 C         4.463705        -0.635189         1.331080
 C         4.670473         0.593899         0.448395
 C         3.833118         1.037006        -0.567420
 C         2.439802         0.859565        -0.786323
 O         1.928187        -0.418211        -1.302786
 H        -0.031740         1.363137         0.788368
 H        -0.702770         0.662761        -0.605132
 H        -0.472204        -0.352404         0.975664
 H         2.322385         0.017948         2.018756
 H         1.439381        -1.467432         1.489204
 H         4.451950        -0.491660         2.455221
 H         5.403326        -1.294005         1.337706
 H         5.738469         0.944362         0.576162
 H         4.233457         1.787046        -1.168434
 H         2.100155         1.632665        -1.351383
