19
Iteration:  2058
 C         0.094107         0.265033         0.214667
 C         1.552519         0.024244        -0.014389
 C         2.088043        -0.794872         1.257125
 O         3.259235        -1.424457         1.207440
 C         4.424185        -0.652659         1.299357
 C         4.717427         0.502005         0.262753
 C         3.859168         1.192226        -0.568116
 C         2.438602         0.943981        -0.729250
 O         1.871840        -0.250212        -1.366455
 H        -0.085990         0.854108         1.159706
 H        -0.212086         0.945413        -0.619187
 H        -0.318522        -0.788880         0.197283
 H         2.058623         0.066296         2.034283
 H         1.480932        -1.633565         1.610686
 H         4.414008        -0.128019         2.206058
 H         5.313688        -1.371431         1.383878
 H         5.864635         0.743019         0.224330
 H         4.275419         2.012686        -1.202592
 H         1.962119         1.805206        -1.074338
