19
Iteration:  1991charge 0 multiplicity 1
 C         0.017439         0.264633         0.060621
 C         1.514908         0.105854         0.116064
 C         2.024132        -0.718844         1.359635
 O         3.224985        -1.345503         1.059384
 C         4.411132        -0.681796         1.116930
 C         4.757264         0.514529         0.216046
 C         3.893925         1.225264        -0.515627
 C         2.482646         0.895886        -0.716075
 O         1.999532        -0.405703        -1.146753
 H        -0.521551         0.560093         1.087200
 H        -0.262072         1.060236        -0.665981
 H        -0.404331        -0.746744        -0.034101
 H         2.254613        -0.069867         2.269563
 H         1.376311        -1.546988         1.621280
 H         4.401159        -0.152007         2.136016
 H         5.200392        -1.538512         1.220749
 H         5.849386         0.867232         0.269709
 H         4.253951         2.127479        -0.917321
 H         1.986864         1.662498        -1.196740
