19
Iteration:  1129
 C        -0.073207         0.312653         0.154794
 C         1.453464         0.069708         0.011392
 C         2.170546        -0.572203         1.276944
 O         3.354531        -1.400249         1.029478
 C         4.579657        -0.664521         1.373749
 C         4.698919         0.542909         0.432064
 C         3.847715         1.008177        -0.420665
 C         2.446864         0.866096        -0.864293
 O         1.825302        -0.361716        -1.375399
 H        -0.390796         1.074677         0.990496
 H        -0.437546         0.755795        -0.915052
 H        -0.655613        -0.626742         0.361332
 H         2.491821         0.290140         2.020434
 H         1.467598        -1.244668         1.812148
 H         4.538312        -0.523467         2.430258
 H         5.538118        -1.394650         1.264227
 H         5.659134         1.066300         0.455276
 H         4.169406         1.709683        -1.074453
 H         2.195331         1.796058        -1.339502
