19
Iteration:   293charge 0 multiplicity 1
 C         0.156827         0.564819         0.237587
 C         1.543849         0.018245         0.082607
 C         1.997294        -0.954001         1.183423
 O         3.344865        -1.463063         1.184904
 C         4.448111        -0.501777         1.184983
 C         4.722993         0.614747         0.282612
 C         3.840973         1.188462        -0.573775
 C         2.409447         0.863160        -0.794789
 O         1.886720        -0.489773        -1.217556
 H         0.093831         1.345714         1.039355
 H        -0.178354         1.020450        -0.639440
 H        -0.691665        -0.136345         0.462169
 H         1.646836        -0.555317         2.220972
 H         1.362959        -1.893905         0.996877
 H         4.511726        -0.108347         2.253881
 H         5.339493        -1.185468         1.090953
 H         5.685414         1.063171         0.365586
 H         4.203451         1.958537        -1.135733
 H         1.833796         1.673731        -1.316375
