19
Iteration:  4599
 C         0.023324         0.292435         0.088794
 C         1.491596         0.051530         0.131621
 C         2.016406        -1.096653         1.087941
 O         3.261733        -1.503906         0.875837
 C         4.284931        -0.535628         1.219366
 C         4.763360         0.409317         0.142439
 C         3.971400         1.300283        -0.424692
 C         2.459198         1.089932        -0.334880
 O         2.119972        -0.111207        -1.111614
 H        -0.353471        -0.257588        -0.843706
 H        -0.548646        -0.205907         0.837129
 H        -0.351189         1.396342         0.141165
 H         1.811200        -0.863424         2.169009
 H         1.276590        -1.875709         0.963107
 H         3.905473         0.062611         2.166759
 H         5.014174        -1.275421         1.730225
 H         5.800498         0.286612        -0.380536
 H         4.285033         2.020884        -1.189139
 H         1.887074         1.898584        -0.700941
