19
Iteration:  1872charge 0 multiplicity 1
 C         0.088489         0.347468         0.222168
 C         1.543920         0.057967         0.121257
 C         1.966393        -0.810220         1.276788
 O         3.304000        -1.392772         0.936745
 C         4.364030        -0.493504         1.303690
 C         4.791946         0.488607         0.261003
 C         3.905777         1.169945        -0.546860
 C         2.442461         0.887648        -0.774137
 O         1.932591        -0.447949        -1.206249
 H        -0.146086         1.312733         0.652247
 H        -0.215846         0.547958        -0.826361
 H        -0.539562        -0.408410         0.813094
 H         2.008288        -0.096486         2.126947
 H         1.179731        -1.594027         1.373046
 H         4.209409        -0.090237         2.276370
 H         5.241075        -1.158477         1.519644
 H         5.834724         0.942336         0.417567
 H         4.341789         1.945097        -1.086972
 H         2.010863         1.738795        -1.280912
