19
Iteration:  1019charge 0 multiplicity 1
 C         0.030290         0.308044         0.037447
 C         1.512789         0.076562         0.089425
 C         2.059857        -0.580015         1.363821
 O         3.262270        -1.366987         1.096774
 C         4.500624        -0.724646         1.143265
 C         4.705786         0.538202         0.339669
 C         3.828949         1.207539        -0.509837
 C         2.433964         0.855240        -0.753434
 O         1.957983        -0.470176        -1.188439
 H        -0.356508         0.809277         0.939612
 H        -0.192800         0.997761        -0.835414
 H        -0.410522        -0.668674        -0.160890
 H         2.158286         0.222154         2.072179
 H         1.343718        -1.370067         1.612539
 H         4.729089        -0.350668         2.226708
 H         5.258478        -1.484963         0.807076
 H         5.791026         0.801052         0.558901
 H         4.214098         2.066870        -0.943944
 H         2.015360         1.666652        -1.285250
