19
Iteration:  1589charge 0 multiplicity 1
 C         0.002346         0.472012         0.092382
 C         1.514162         0.077687         0.117453
 C         2.001833        -0.789607         1.289633
 O         3.251554        -1.454985         1.098858
 C         4.400815        -0.685641         1.113053
 C         4.722287         0.587502         0.182093
 C         3.849758         1.310086        -0.545105
 C         2.444993         0.875751        -0.772141
 O         2.118685        -0.528650        -1.032555
 H        -0.210016         1.208672         0.896075
 H        -0.146696         0.922195        -0.859213
 H        -0.509407        -0.520771         0.375068
 H         2.029466        -0.173561         2.222902
 H         1.380780        -1.738978         1.501521
 H         4.379532        -0.209021         2.146530
 H         5.180447        -1.373990         1.034862
 H         5.680882         0.998697         0.436824
 H         4.037220         2.304301        -1.011864
 H         1.968592         1.608493        -1.482367
