19
Iteration:  2708
 C         0.176008         0.636421         0.444665
 C         1.613213        -0.001821         0.068808
 C         2.057552        -1.156673         0.929783
 O         3.427474        -1.564131         0.895108
 C         4.335295        -0.579743         1.430133
 C         4.687185         0.580192         0.451085
 C         3.780445         1.212048        -0.464909
 C         2.377092         0.960884        -0.753179
 O         1.893715        -0.268524        -1.401994
 H         0.021452         1.726761         0.318516
 H        -0.588886         0.371331        -0.426035
 H         0.055940         0.284527         1.604128
 H         1.679450        -1.021167         1.973275
 H         1.528842        -2.004384         0.515375
 H         4.013706        -0.405494         2.444965
 H         5.143540        -1.179853         1.592297
 H         5.570077         1.132586         0.744381
 H         4.102386         2.159948        -0.960810
 H         1.963311         1.906513        -0.942748
