19
Iteration:  2927charge 0 multiplicity 1
 C         0.055456         0.389368         0.322375
 C         1.469563         0.101792         0.007056
 C         2.092698        -0.745390         1.165442
 O         3.278126        -1.533371         0.838781
 C         4.514909        -0.791579         1.080212
 C         4.696192         0.582734         0.572585
 C         3.777173         1.251468        -0.249092
 C         2.418871         0.926029        -0.812747
 O         2.007808        -0.319570        -1.314939
 H        -0.225649         1.427716         0.005251
 H        -0.555430        -0.413010        -0.190072
 H        -0.193569         0.224041         1.400198
 H         2.159602        -0.122063         2.062467
 H         1.366446        -1.510006         1.366311
 H         4.671592        -0.733181         2.227384
 H         5.366306        -1.490880         0.743117
 H         5.549161         1.134439         0.998706
 H         4.056425         2.269261        -0.560716
 H         1.877534         1.754398        -1.432141
