19
Iteration:  4318charge 0 multiplicity 1
 C         0.037103         0.562910         0.293784
 C         1.519411         0.063213         0.113879
 C         2.041946        -1.059013         1.076696
 O         3.281548        -1.515977         0.607232
 C         4.442466        -0.773943         1.137393
 C         4.638542         0.703613         0.610684
 C         3.813266         1.328106        -0.202591
 C         2.459592         0.890555        -0.710209
 O         2.088393        -0.319134        -1.244577
 H        -0.321052         0.105922         1.225513
 H        -0.052482         1.573503         0.524782
 H        -0.540631         0.516769        -0.681222
 H         1.995567        -0.880492         2.154063
 H         1.196752        -1.960514         1.044046
 H         4.166456        -0.689460         2.213232
 H         5.243068        -1.435144         0.906280
 H         5.705712         0.906307         0.838734
 H         4.180384         2.260186        -0.527927
 H         2.029521         1.848463        -1.304450
