19
Iteration:  3778charge 0 multiplicity 1
 C        -0.006078         0.179961         0.128150
 C         1.484285         0.064519         0.157048
 C         2.023127        -0.903742         1.142471
 O         3.306255        -1.439051         0.849157
 C         4.463254        -0.661085         1.236674
 C         4.860436         0.471072         0.293638
 C         3.954884         1.160964        -0.410432
 C         2.350634         1.055845        -0.449541
 O         1.914223        -0.071690        -1.236551
 H        -0.205987         0.713323        -0.757640
 H        -0.535273        -0.836927        -0.118508
 H        -0.367301         0.668826         1.047768
 H         2.066973        -0.344267         2.053928
 H         1.295526        -1.730951         1.282243
 H         4.025700        -0.213436         2.202613
 H         5.144517        -1.474679         1.181221
 H         5.959827         0.570253         0.099497
 H         4.414924         1.764419        -1.186857
 H         2.053242         2.125837        -0.737817
