19
Iteration:  2005
 C        -0.014854         0.191747         0.080360
 C         1.510244         0.088371         0.091866
 C         2.073778        -0.617936         1.327167
 O         3.248238        -1.436847         1.100400
 C         4.492256        -0.623670         1.239844
 C         4.811293         0.421350         0.174329
 C         3.918084         1.175917        -0.436053
 C         2.412096         0.968645        -0.720380
 O         1.889216        -0.315179        -1.231398
 H        -0.334634         0.564105         1.005762
 H        -0.396648         0.816483        -0.763233
 H        -0.407982        -0.891518        -0.329952
 H         2.075037         0.072477         2.169577
 H         1.293452        -1.385444         1.610549
 H         4.656244        -0.153292         2.342396
 H         5.329303        -1.352831         1.134058
 H         5.916269         0.739207         0.239821
 H         4.233750         2.093288        -1.027121
 H         1.943052         1.747120        -1.323384
