19
Iteration:  4044charge 0 multiplicity 1
 C         0.083744         0.396861         0.291272
 C         1.543967         0.059547         0.145838
 C         2.049864        -1.064255         0.996143
 O         3.362499        -1.492924         0.761849
 C         4.325928        -0.541740         1.356793
 C         4.779420         0.516701         0.418592
 C         3.923229         1.157733        -0.438169
 C         2.493661         1.020535        -0.552451
 O         1.827599        -0.185485        -1.290700
 H        -0.153629         1.328589        -0.333969
 H        -0.528910        -0.381530        -0.270539
 H        -0.368945         0.398742         1.274568
 H         1.848982        -0.818642         2.104543
 H         1.472221        -1.931568         0.587847
 H         3.756204        -0.069302         2.333862
 H         5.156980        -1.106033         1.745258
 H         5.829872         0.620829         0.313515
 H         4.506441         1.860312        -1.091371
 H         1.989707         1.883190        -0.781953
