19
Iteration:  1673charge 0 multiplicity 1
 C         0.109440         0.339951         0.372813
 C         1.583184         0.095268         0.091071
 C         2.043443        -0.890089         1.174084
 O         3.288827        -1.390434         1.046749
 C         4.404856        -0.476617         1.400183
 C         4.707536         0.527332         0.343739
 C         3.927147         1.088673        -0.578888
 C         2.417131         0.892339        -0.827932
 O         1.884119        -0.347938        -1.408306
 H        -0.029431         1.400646         0.797584
 H        -0.489365         0.286746        -0.520919
 H        -0.438629        -0.298235         0.967406
 H         1.743264        -0.407468         2.126811
 H         1.329671        -1.670796         1.077569
 H         4.089622        -0.017153         2.400034
 H         5.330330        -1.179711         1.586330
 H         5.766450         0.653281         0.341888
 H         4.561584         1.740397        -1.345523
 H         2.002014         1.853653        -1.309925
