19
Iteration:  3232charge 0 multiplicity 1
 C         0.095446         0.234251         0.274656
 C         1.566328         0.111625         0.110952
 C         2.017122        -1.045703         1.034349
 O         3.331828        -1.544187         0.974939
 C         4.369356        -0.600446         1.309362
 C         4.672096         0.391512         0.214774
 C         3.832165         1.233329        -0.430226
 C         2.407368         1.126109        -0.547726
 O         2.035421        -0.043208        -1.303216
 H        -0.240609         1.145408        -0.274583
 H        -0.405173        -0.695578        -0.157373
 H        -0.261811         0.497884         1.386533
 H         1.754552        -0.645642         2.140328
 H         1.352990        -1.972081         0.924598
 H         4.172053        -0.018970         2.174248
 H         5.223886        -1.281515         1.545068
 H         5.786184         0.522113         0.007974
 H         4.287609         1.984891        -1.107946
 H         1.886323         1.931882        -0.939461
