19
Iteration:  1144charge 0 multiplicity 1
 C         0.068495         0.371501         0.206052
 C         1.512496         0.053185         0.016989
 C         2.144319        -0.653705         1.210990
 O         3.327786        -1.367683         0.971701
 C         4.454117        -0.646280         1.360836
 C         4.677161         0.503830         0.455702
 C         3.867718         1.105082        -0.519797
 C         2.382044         0.854447        -0.863004
 O         1.890133        -0.435606        -1.270553
 H        -0.056359         1.035081         1.003897
 H        -0.356354         0.731740        -0.690538
 H        -0.384167        -0.572953         0.515576
 H         2.184745         0.136418         1.976152
 H         1.329599        -1.290168         1.694713
 H         4.381128        -0.229213         2.429390
 H         5.193713        -1.392964         1.292887
 H         5.639116         1.002371         0.592925
 H         4.357285         2.143158        -0.933742
 H         1.892342         1.694846        -1.476708
