19
Iteration:  4086charge 0 multiplicity 1
 C         0.180050         0.670196         0.482777
 C         1.540488        -0.057034         0.065366
 C         1.993879        -1.156354         0.894826
 O         3.384952        -1.502721         0.726191
 C         4.239366        -0.560557         1.377751
 C         4.662361         0.671055         0.546686
 C         3.899580         1.264969        -0.422137
 C         2.457988         0.863576        -0.652212
 O         1.970134        -0.333508        -1.333127
 H         0.016871         1.591450        -0.056356
 H        -0.713400         0.095085         0.134898
 H         0.130061         0.731483         1.511485
 H         1.893535        -0.883203         1.933649
 H         1.458556        -2.196411         0.700600
 H         3.828477        -0.202736         2.332215
 H         5.151591        -1.066682         1.509378
 H         5.670122         0.876067         0.575639
 H         4.292205         1.757715        -1.331715
 H         1.856241         1.793964        -1.082700
