19
Iteration:  4639charge 0 multiplicity 1
 C         0.032805         0.262806         0.194531
 C         1.517816         0.044870         0.061933
 C         2.024889        -0.937928         1.064575
 O         3.324501        -1.482579         0.918072
 C         4.416822        -0.710267         1.337580
 C         4.730044         0.427509         0.336348
 C         3.910472         1.178372        -0.397661
 C         2.401038         1.117530        -0.534695
 O         1.952921        -0.037510        -1.322687
 H        -0.346086        -0.206681        -0.700166
 H        -0.340514        -0.468461         0.958224
 H        -0.239189         1.287552         0.304809
 H         1.947005        -0.377459         2.025744
 H         1.377024        -1.906691         1.073445
 H         4.451040        -0.443330         2.404740
 H         5.270728        -1.345615         1.237418
 H         5.805545         0.611085         0.327968
 H         4.324648         1.979278        -0.982583
 H         1.849801         2.078078        -0.888006
