19
Iteration:  3217charge 0 multiplicity 1
 C         0.087758         0.296145         0.212934
 C         1.617133        -0.002540         0.076830
 C         2.038310        -1.090037         1.096273
 O         3.363403        -1.651783         1.125164
 C         4.330565        -0.594657         1.261024
 C         4.634317         0.365914         0.141957
 C         3.879583         1.284333        -0.439430
 C         2.357324         1.241597        -0.549877
 O         2.032794         0.002707        -1.310823
 H        -0.311074         1.012107        -0.498515
 H        -0.564924        -0.702178        -0.007803
 H        -0.108411         0.453305         1.371097
 H         1.799221        -0.729871         2.164736
 H         1.436814        -1.853897         0.676348
 H         3.979680         0.011194         2.127299
 H         5.263558        -0.994847         1.474484
 H         5.686522         0.403745        -0.147753
 H         4.319731         2.010558        -1.075896
 H         1.772826         2.240635        -0.665261
