19
Iteration:   390
 C        -0.103739         0.398018         0.189364
 C         1.398244         0.058767         0.126580
 C         1.971788        -0.890712         1.148195
 O         3.385163        -1.220316         0.932780
 C         4.519377        -0.395071         1.416792
 C         4.955218         0.477662         0.215629
 C         4.039056         0.961460        -0.578410
 C         2.440867         0.848686        -0.639137
 O         1.804792        -0.392915        -1.169089
 H        -0.534683         0.830604         1.156997
 H        -0.460835         1.012128        -0.578204
 H        -0.740368        -0.553416         0.080208
 H         1.797684        -0.610285         2.137455
 H         1.374059        -1.835277         1.086923
 H         4.335790         0.176947         2.347789
 H         5.232336        -1.098125         1.642851
 H         6.009674         0.625947         0.031849
 H         4.320916         1.472341        -1.591105
 H         1.926420         1.760727        -1.036984
