19
Iteration:  4971charge 0 multiplicity 1
 C         0.013056         0.393939         0.127391
 C         1.496134         0.081560         0.091679
 C         2.018753        -1.098284         0.983724
 O         3.320894        -1.573187         0.749587
 C         4.394517        -0.613054         1.287501
 C         4.818305         0.536305         0.338509
 C         3.864851         1.281374        -0.297156
 C         2.461623         1.068796        -0.327997
 O         1.975861        -0.173479        -1.241110
 H        -0.398232         0.556814         1.116255
 H        -0.193498         1.255840        -0.425085
 H        -0.528901        -0.421602        -0.320705
 H         1.896450        -0.741174         2.111035
 H         1.404408        -2.044786         0.822208
 H         4.004399        -0.360234         2.324764
 H         5.161546        -1.331809         1.439867
 H         5.855062         0.700308         0.196940
 H         4.234164         1.973795        -1.056974
 H         1.960301         2.026693        -0.747848
