19
Iteration:  2633
 C        -0.010929         0.291294         0.275150
 C         1.461698         0.043330         0.074865
 C         2.035322        -1.012802         1.002842
 O         3.381876        -1.378570         0.816797
 C         4.337202        -0.469372         1.419602
 C         4.857980         0.433614         0.328321
 C         4.012432         1.079712        -0.519340
 C         2.396486         1.067416        -0.489615
 O         1.888260        -0.163846        -1.239326
 H        -0.155968         0.622709         1.274260
 H        -0.432360         0.939744        -0.603617
 H        -0.519128        -0.748389         0.183691
 H         1.970753        -0.682808         2.049149
 H         1.451216        -1.957820         0.906841
 H         3.922764         0.096777         2.326899
 H         4.987400        -1.238080         1.903190
 H         5.886304         0.368145         0.006038
 H         4.340811         1.585174        -1.427176
 H         2.092954         1.977342        -0.921443
