19
Iteration:   425charge 0 multiplicity 1
 C         0.211172         0.442962         0.253967
 C         1.632457         0.017287         0.112488
 C         2.021218        -0.890351         1.283552
 O         3.305312        -1.468805         1.075103
 C         4.339260        -0.439851         1.368141
 C         4.652904         0.505063         0.185307
 C         3.865746         1.151887        -0.670399
 C         2.362638         0.913880        -0.768255
 O         1.943484        -0.418972        -1.268656
 H         0.103687         0.794503         1.274864
 H        -0.068383         1.304379        -0.449713
 H        -0.411384        -0.437419         0.074542
 H         1.993339        -0.266499         2.118150
 H         1.287475        -1.748545         1.320132
 H         4.051052         0.191826         2.203328
 H         5.165391        -0.999247         1.657152
 H         5.736239         0.823037         0.213887
 H         4.281912         1.842073        -1.255213
 H         1.801292         1.750969        -1.197076
