19
Iteration:  3523charge 0 multiplicity 1
 C         0.124202         0.411850         0.341080
 C         1.485473         0.104849         0.084881
 C         2.063396        -0.927825         1.076486
 O         3.394335        -1.432044         0.648437
 C         4.385939        -0.718770         1.333608
 C         4.747913         0.600571         0.491504
 C         3.931136         1.183734        -0.361767
 C         2.459576         0.907727        -0.729016
 O         1.770753        -0.286836        -1.266834
 H        -0.168770         1.315180        -0.125865
 H        -0.687936        -0.254122        -0.183348
 H        -0.151808         0.297149         1.356012
 H         2.126795        -0.537616         2.023270
 H         1.492019        -1.922135         1.052148
 H         3.996781        -0.486115         2.334768
 H         5.270105        -1.478139         1.672913
 H         5.645592         1.240792         0.838143
 H         4.302375         2.155953        -0.773593
 H         2.106722         1.896417        -1.114790
