19
Iteration:   155
 C        -0.061500         0.428145         0.042715
 C         1.448966         0.020974         0.090628
 C         2.096105        -0.606470         1.350069
 O         3.257741        -1.445313         1.195300
 C         4.565763        -0.772683         1.060567
 C         4.720838         0.482607         0.233790
 C         3.757458         1.263003        -0.496185
 C         2.343180         0.904852        -0.775369
 O         2.133279        -0.465091        -1.140244
 H        -0.375757         0.540634         1.029800
 H        -0.192447         1.429199        -0.582928
 H        -0.564558        -0.381090        -0.415485
 H         2.229364         0.197190         2.155970
 H         1.341544        -1.205065         1.852041
 H         4.950162        -0.489381         2.123922
 H         5.238738        -1.485033         0.733370
 H         5.718723         0.951822         0.302789
 H         4.059893         2.286627        -0.669380
 H         1.834413         1.536360        -1.435002
