19
Iteration:  4655charge 0 multiplicity 1
 C         0.033001         0.293305         0.294727
 C         1.528767         0.054429        -0.035433
 C         2.027727        -0.917540         1.025430
 O         3.325970        -1.513069         0.934209
 C         4.544641        -0.750931         1.289044
 C         4.668618         0.563216         0.536123
 C         3.836522         1.155137        -0.302478
 C         2.428427         1.037339        -0.617282
 O         1.927163        -0.093735        -1.436742
 H        -0.709998         0.138087        -0.514040
 H        -0.233168        -0.004064         1.263936
 H        -0.228780         1.405174         0.393576
 H         1.940479        -0.463794         2.020105
 H         1.321573        -1.705024         0.968411
 H         4.441145        -0.465976         2.361904
 H         5.370208        -1.439635         0.945957
 H         5.732736         0.846430         0.292189
 H         4.408209         1.680625        -1.100133
 H         2.040178         1.972000        -0.835568
