19
Iteration:  4343
 C         0.079966         0.444883         0.153031
 C         1.527708         0.024405         0.086063
 C         1.966788        -1.022751         1.028893
 O         3.319423        -1.534899         0.735389
 C         4.425356        -0.745158         1.102121
 C         4.657726         0.550585         0.425956
 C         3.820609         1.382055        -0.203977
 C         2.458586         0.999863        -0.509528
 O         2.046463        -0.273017        -1.192422
 H        -0.374737         0.069811         1.036822
 H         0.248953         1.516318         0.393690
 H        -0.519156         0.452930        -0.747990
 H         1.928856        -0.689025         2.075433
 H         1.242825        -1.900424         0.955763
 H         4.285629        -0.445845         2.217967
 H         5.267422        -1.420974         0.927736
 H         5.736618         0.820875         0.730292
 H         4.159748         2.436928        -0.330770
 H         1.877259         1.945140        -0.902987
