19
Iteration:   200
 C         0.091967         0.326901         0.177333
 C         1.554335         0.037662         0.087798
 C         2.026600        -0.671809         1.307477
 O         3.229205        -1.387310         1.156391
 C         4.494163        -0.712271         1.147966
 C         4.653980         0.536741         0.292814
 C         3.806447         1.144753        -0.585315
 C         2.409932         0.933175        -0.793134
 O         2.041868        -0.401507        -1.214098
 H        -0.104529         0.764093         1.119797
 H        -0.229564         1.043013        -0.700737
 H        -0.490965        -0.562784         0.089336
 H         2.060679         0.031354         2.206935
 H         1.222686        -1.373668         1.619553
 H         4.971910        -0.555934         2.176471
 H         5.087907        -1.423167         0.691703
 H         5.644951         1.049730         0.343130
 H         4.084736         2.190079        -0.973436
 H         1.910825         1.781356        -1.221591
