19
Iteration:  3086
 C         0.266940         0.704181         0.489303
 C         1.558017        -0.057853        -0.025549
 C         2.045355        -1.229102         0.866537
 O         3.439297        -1.616939         0.871064
 C         4.386600        -0.567182         1.377173
 C         4.595687         0.625090         0.514901
 C         3.759784         1.209329        -0.414512
 C         2.344369         0.951395        -0.744995
 O         1.896418        -0.220966        -1.381498
 H         0.049513         1.663705        -0.194960
 H        -0.703248        -0.005093         0.649572
 H         0.483172         1.183229         1.597960
 H         1.690670        -1.102029         1.838198
 H         1.508094        -2.148424         0.665581
 H         3.919890        -0.416152         2.513035
 H         5.340752        -0.998312         1.623587
 H         5.527148         1.088285         0.626859
 H         4.318370         2.150679        -0.729261
 H         1.959484         1.822316        -1.152216
