19
Iteration:  1570charge 0 multiplicity 1
 C         0.121629         0.399620         0.128962
 C         1.594535         0.103036         0.099584
 C         1.977715        -0.703335         1.401876
 O         3.215150        -1.467587         1.038887
 C         4.443542        -0.579582         1.095499
 C         4.621339         0.572579         0.254163
 C         3.781225         1.275815        -0.473066
 C         2.440812         0.843020        -0.857300
 O         2.123694        -0.543544        -1.085278
 H        -0.197694         0.830134         1.049689
 H        -0.135131         1.261819        -0.562731
 H        -0.589215        -0.475328        -0.046595
 H         1.967095        -0.183653         2.365072
 H         1.118119        -1.351606         1.435237
 H         4.499829        -0.372854         2.194629
 H         5.204061        -1.357099         0.669795
 H         5.692764         0.793847         0.255290
 H         4.239129         2.049281        -0.924392
 H         1.958675         1.512914        -1.440549
