19
Iteration:  1608
 C         0.027148         0.396249         0.075326
 C         1.524706         0.015391         0.106061
 C         2.035588        -0.744324         1.295901
 O         3.253675        -1.397214         1.046433
 C         4.512952        -0.587805         1.215640
 C         4.702435         0.496364         0.288813
 C         3.852424         1.159549        -0.518885
 C         2.379371         0.905906        -0.684534
 O         2.001118        -0.424365        -1.184949
 H        -0.030588         1.374686         0.638478
 H        -0.249311         0.466507        -0.974588
 H        -0.613805        -0.336209         0.546059
 H         2.145095        -0.126184         2.205139
 H         1.334492        -1.592682         1.483482
 H         4.740748        -0.202398         2.204867
 H         5.337134        -1.304722         1.127422
 H         5.718556         0.852747         0.169063
 H         4.276804         2.044215        -1.170726
 H         1.791296         1.737893        -1.303886
