19
Iteration:  2112
 C         0.131369         0.599673         0.238033
 C         1.496531         0.001542         0.115424
 C         2.000172        -0.988678         1.171750
 O         3.369490        -1.354131         0.783989
 C         4.345944        -0.416710         1.338674
 C         4.673444         0.610201         0.404654
 C         3.894487         1.074167        -0.577568
 C         2.437275         0.834707        -0.678016
 O         1.937239        -0.538375        -1.178896
 H         0.076603         1.311070         1.182261
 H         0.022835         1.173293        -0.733896
 H        -0.747003        -0.046980         0.331790
 H         1.933846        -0.527795         2.225046
 H         1.497952        -1.965067         1.215513
 H         4.099003        -0.051991         2.445303
 H         5.350766        -1.044860         1.448173
 H         5.810519         0.888653         0.481861
 H         4.344695         1.741240        -1.348164
 H         1.896967         1.685453        -1.048640
