19
Iteration:  4060
 C         0.125495         0.508370         0.325087
 C         1.529302         0.051361         0.176236
 C         1.957653        -1.185515         0.944405
 O         3.367472        -1.426886         0.721023
 C         4.231702        -0.531877         1.327064
 C         4.781473         0.534820         0.416623
 C         3.933145         1.188406        -0.450514
 C         2.502495         0.901645        -0.629628
 O         1.931362        -0.246725        -1.197592
 H        -0.049780         1.499127        -0.080562
 H        -0.615334        -0.135568        -0.179425
 H        -0.116724         0.519290         1.472335
 H         1.856768        -1.130352         2.049932
 H         1.469753        -2.110423         0.631839
 H         3.831246        -0.000424         2.081571
 H         5.144425        -1.149521         1.687543
 H         5.760004         1.137021         0.722944
 H         4.113734         2.112600        -0.965991
 H         2.039781         1.898201        -1.072472
