19
Iteration:  4978
 C         0.007019         0.364755         0.090405
 C         1.483813         0.052044         0.084240
 C         2.004631        -1.095025         1.065890
 O         3.348051        -1.504752         0.734032
 C         4.378682        -0.625967         1.292265
 C         4.788029         0.449891         0.306764
 C         3.913722         1.265382        -0.306946
 C         2.411381         1.082398        -0.357914
 O         2.013203        -0.108061        -1.196252
 H        -0.441023         0.403090         1.113816
 H        -0.244742         1.339896        -0.407740
 H        -0.548127        -0.549986        -0.382337
 H         1.701515        -0.969741         2.066865
 H         1.420704        -1.895122         0.753214
 H         4.200815        -0.206826         2.307932
 H         5.244563        -1.370843         1.466353
 H         5.841425         0.602410         0.065878
 H         4.298540         2.035458        -0.964428
 H         1.851049         1.973538        -0.679301
