19
Iteration:  3751
 C         0.062041         0.308050         0.320182
 C         1.522284         0.055988         0.015113
 C         2.094680        -0.940302         1.068338
 O         3.372253        -1.514953         0.903392
 C         4.427332        -0.677300         1.324772
 C         4.625136         0.437870         0.374753
 C         3.836072         1.190582        -0.391381
 C         2.376509         1.074072        -0.662456
 O         1.980338        -0.130083        -1.364315
 H        -0.493755         1.359009        -0.028196
 H        -0.543835        -0.559814         0.000123
 H        -0.000276         0.433671         1.447489
 H         2.115048        -0.342061         2.035956
 H         1.353875        -1.737732         1.251198
 H         4.196852        -0.361679         2.311597
 H         5.366282        -1.382620         1.316169
 H         5.651346         0.863232         0.288631
 H         4.327704         2.116642        -0.830361
 H         2.004047         2.015182        -0.978841
