19
Iteration:  2820
 C         0.137933         0.273536         0.215942
 C         1.660342        -0.021849         0.039020
 C         1.996986        -0.991737         1.166377
 O         3.237044        -1.558531         1.105759
 C         4.408727        -0.774222         1.067834
 C         4.578238         0.446910         0.249246
 C         3.830340         1.373964        -0.314957
 C         2.351224         1.125400        -0.545729
 O         2.091111        -0.070749        -1.336227
 H        -0.215878         0.444679        -0.895877
 H        -0.567499        -0.554832         0.607646
 H        -0.034805         1.291336         0.734693
 H         1.881722        -0.246759         2.045841
 H         1.357045        -1.905760         1.191035
 H         4.690619        -0.163339         2.092780
 H         5.209056        -1.391404         0.824352
 H         5.677552         0.711325         0.309795
 H         4.267608         2.203665        -0.834008
 H         1.864575         1.966885        -0.875943
