19
Iteration:  4621
 C        -0.044141         0.199174         0.074267
 C         1.541256         0.098533         0.132216
 C         2.010493        -1.004760         1.200121
 O         3.311006        -1.562256         0.882723
 C         4.353283        -0.613103         1.188660
 C         4.788736         0.382176         0.214304
 C         3.949146         1.228546        -0.388724
 C         2.483360         1.127753        -0.480208
 O         1.988161        -0.028092        -1.210148
 H        -0.437890        -0.224712        -0.891244
 H        -0.573487        -0.367462         0.799158
 H        -0.193092         1.299755         0.302116
 H         1.868398        -0.612757         2.219567
 H         1.290928        -1.799455         1.155582
 H         3.977348         0.037902         2.090952
 H         5.089015        -1.157317         1.836757
 H         5.933972         0.617379         0.162808
 H         4.285551         2.112360        -0.953316
 H         1.939159         1.995160        -0.732590
