19
Iteration:  2336
 C         0.104440         0.534658         0.210319
 C         1.455749         0.077831         0.112411
 C         2.110315        -0.917299         1.218589
 O         3.330409        -1.476334         1.009187
 C         4.387064        -0.582289         1.279976
 C         4.676196         0.632253         0.377599
 C         3.899168         1.226026        -0.578493
 C         2.433854         0.827543        -0.854332
 O         1.925114        -0.475874        -1.199180
 H         0.085465         1.352920         0.850779
 H        -0.143973         0.935390        -0.755280
 H        -0.660713        -0.297046         0.614034
 H         2.152257        -0.431162         2.166525
 H         1.424893        -1.755591         1.368714
 H         4.337738        -0.355169         2.290261
 H         5.245935        -1.312422         1.152855
 H         5.679725         1.265963         0.612097
 H         4.136570         2.222565        -1.006624
 H         1.797681         1.486387        -1.404950
