19
Iteration:  1290charge 0 multiplicity 1
 C         0.015065         0.381636         0.208690
 C         1.553034         0.066551         0.085929
 C         2.064383        -0.956505         1.138798
 O         3.375200        -1.408001         1.126751
 C         4.373874        -0.377500         1.446983
 C         4.747225         0.416864         0.180677
 C         3.919506         1.024066        -0.637019
 C         2.477965         0.929358        -0.709263
 O         1.876489        -0.273235        -1.250588
 H        -0.232960         0.695397         1.248662
 H        -0.254257         1.200754        -0.522673
 H        -0.516764        -0.466800        -0.137069
 H         1.674631        -0.480107         2.085251
 H         1.346573        -1.849021         1.082575
 H         3.871024         0.309970         2.119153
 H         5.182579        -0.897501         2.041891
 H         5.790979         0.555690         0.023024
 H         4.337707         1.708255        -1.346100
 H         1.912794         1.778654        -1.145403
