19
Iteration:  3125
 C         0.223968         0.467353         0.499414
 C         1.599582         0.016380         0.049710
 C         1.994633        -1.176978         0.910457
 O         3.382160        -1.430064         0.679128
 C         4.268779        -0.500753         1.417217
 C         4.682357         0.605326         0.568965
 C         3.959682         1.083478        -0.484680
 C         2.504575         0.913979        -0.740311
 O         1.763442        -0.191711        -1.308531
 H        -0.165357         1.243156        -0.151838
 H        -0.436520        -0.312345         0.393686
 H         0.187546         0.793499         1.451660
 H         1.791573        -0.869514         2.018104
 H         1.404982        -2.100443         0.670905
 H         3.836128        -0.075781         2.339233
 H         5.143293        -1.197918         1.699862
 H         5.640892         1.123040         0.852300
 H         4.443723         1.969398        -0.934497
 H         1.966655         1.940237        -0.894347
