19
Iteration:  3982
 C         0.086845         0.161700         0.187789
 C         1.567059         0.001850        -0.082762
 C         2.014730        -1.010829         1.084469
 O         3.292337        -1.566183         1.175366
 C         4.466550        -0.706274         1.271048
 C         4.701884         0.347455         0.234580
 C         3.917881         1.313538        -0.375927
 C         2.395740         1.176721        -0.548527
 O         1.878731         0.095476        -1.353026
 H        -0.373629         0.707710        -0.706802
 H        -0.253580        -0.818229         0.270514
 H        -0.153580         0.814545         1.090671
 H         1.746899        -0.520352         1.997556
 H         1.350942        -1.833334         1.112517
 H         4.543126        -0.175358         2.250657
 H         5.353097        -1.454417         1.230902
 H         5.827831         0.634383         0.081608
 H         4.444996         2.028653        -1.102318
 H         1.910275         2.216787        -0.587467
