19
Iteration:  4147charge 0 multiplicity 1
 C         0.058633         0.338358         0.363145
 C         1.524373         0.054983        -0.030621
 C         2.034178        -1.006728         0.965631
 O         3.376561        -1.537071         0.959421
 C         4.420637        -0.610529         1.341903
 C         4.737632         0.572788         0.492306
 C         3.905737         1.057210        -0.469640
 C         2.431056         1.038454        -0.607602
 O         1.856292        -0.059548        -1.423665
 H        -0.511863         0.430923        -0.546635
 H        -0.297307        -0.546463         0.932329
 H        -0.191239         1.326919         0.890057
 H         1.655322        -0.675602         2.010357
 H         1.434961        -1.824744         0.774733
 H         4.185345        -0.192989         2.458535
 H         5.304246        -1.280868         1.618677
 H         5.882995         0.767340         0.555556
 H         4.381860         1.724325        -1.141974
 H         2.029397         1.959132        -0.754293
