19
Iteration:  3193charge 0 multiplicity 1
 C         0.132638         0.295908         0.215030
 C         1.606887        -0.044404         0.118393
 C         1.976573        -1.162737         0.997650
 O         3.366292        -1.579282         1.134112
 C         4.351055        -0.542611         1.297330
 C         4.700643         0.386599         0.142461
 C         3.868332         1.241578        -0.475189
 C         2.418134         1.108686        -0.393711
 O         1.930773         0.069082        -1.384200
 H        -0.101903         0.867907        -0.723849
 H        -0.489911        -0.585413         0.144741
 H        -0.119723         0.772305         1.096734
 H         1.829940        -0.597670         1.929409
 H         1.325710        -2.004625         0.903129
 H         3.986859         0.100756         2.168560
 H         5.331291        -1.006098         1.560131
 H         5.687624         0.464758        -0.142830
 H         4.218925         2.052559        -1.197040
 H         1.876599         2.176392        -0.515981
