19
Iteration:  3915charge 0 multiplicity 1
 C         0.043024         0.522592         0.224425
 C         1.521693         0.002901         0.079740
 C         2.064871        -0.896765         1.157770
 O         3.328617        -1.405519         0.603407
 C         4.433027        -0.695548         1.164411
 C         4.736994         0.604732         0.545811
 C         3.880437         1.208032        -0.222141
 C         2.436870         0.856654        -0.641858
 O         1.906913        -0.400823        -1.267695
 H        -0.374572         1.340854        -0.461402
 H        -0.580952        -0.305872         0.167197
 H        -0.157385         0.930740         1.221662
 H         2.207982        -0.421653         2.076094
 H         1.534033        -1.714027         1.395547
 H         4.166719        -0.409517         2.302883
 H         5.373503        -1.326443         1.128617
 H         5.541947         1.182986         0.892925
 H         4.128243         2.142692        -0.771147
 H         1.936075         1.713771        -0.994879
