19
Iteration:   949
 C         0.181157         0.405809         0.235937
 C         1.603266         0.058303         0.106687
 C         2.031805        -0.742182         1.255486
 O         3.265150        -1.435161         1.010660
 C         4.349208        -0.611111         1.253182
 C         4.567084         0.591512         0.346859
 C         3.859639         1.226806        -0.558769
 C         2.458336         0.854652        -0.837689
 O         1.990494        -0.497842        -1.215176
 H         0.037603         1.365211         0.900148
 H        -0.192011         0.644486        -0.768751
 H        -0.376459        -0.528101         0.620017
 H         2.232775        -0.115895         2.116170
 H         1.259955        -1.466570         1.389810
 H         4.168160        -0.257058         2.321938
 H         5.274647        -1.322355         1.198328
 H         5.628439         0.931701         0.449109
 H         4.322591         2.061576        -1.142225
 H         1.892064         1.671958        -1.390052
