19
Iteration:  3871
 C         0.146379         0.430334         0.354076
 C         1.528603         0.119866        -0.052059
 C         2.085402        -0.848331         1.090013
 O         3.348836        -1.594964         0.884653
 C         4.556773        -0.752203         1.192116
 C         4.536300         0.641403         0.636187
 C         3.824199         1.219479        -0.297408
 C         2.430634         0.950020        -0.806962
 O         1.841764        -0.324701        -1.382924
 H        -0.336479         1.186384        -0.316659
 H        -0.430449        -0.300537         0.308299
 H         0.139117         0.808906         1.357826
 H         2.239430        -0.297018         2.001227
 H         1.382520        -1.595800         1.329340
 H         4.580558        -0.560935         2.318241
 H         5.383563        -1.346317         0.709226
 H         5.385895         1.174427         0.934598
 H         4.156412         2.178040        -0.755494
 H         2.090997         1.802808        -1.274156
