19
Iteration:  3530charge 0 multiplicity 1
 C         0.064680         0.368668         0.305172
 C         1.552487         0.133902         0.114529
 C         2.070642        -1.005577         1.096008
 O         3.353776        -1.365429         0.645972
 C         4.390313        -0.689183         1.310039
 C         4.708843         0.515283         0.486161
 C         3.926610         1.182743        -0.403159
 C         2.489963         0.951375        -0.688001
 O         1.810237        -0.268948        -1.248220
 H        -0.209756         1.449723        -0.186199
 H        -0.442433        -0.548550        -0.186091
 H        -0.163206         0.328819         1.441249
 H         2.085146        -0.591342         2.225063
 H         1.395688        -1.856345         1.085374
 H         4.003745        -0.355115         2.301632
 H         5.118859        -1.335188         1.573287
 H         5.611861         1.110448         0.627746
 H         4.354890         2.075796        -0.775126
 H         2.123810         1.858054        -1.092645
