19
Iteration:  3310
 C         0.136200         0.576854         0.352654
 C         1.548962         0.025856         0.037181
 C         2.085925        -1.005749         1.053417
 O         3.391398        -1.542922         0.734052
 C         4.437848        -0.706041         1.210757
 C         4.622626         0.657781         0.602326
 C         3.751570         1.259322        -0.271819
 C         2.434566         0.921822        -0.794467
 O         1.890917        -0.350958        -1.277262
 H        -0.207457         1.435406        -0.401501
 H        -0.640620        -0.214660         0.397448
 H         0.334861         0.995627         1.408239
 H         2.067077        -0.450828         2.050213
 H         1.462120        -1.929128         0.953884
 H         4.310125        -0.717918         2.284573
 H         5.381981        -1.267444         0.968843
 H         5.473531         1.233724         0.832336
 H         4.135007         2.245504        -0.751414
 H         1.898635         1.676465        -1.299626
