19
Iteration:  1825charge 0 multiplicity 1
 C         0.028411         0.472397         0.104534
 C         1.493474        -0.024289         0.091270
 C         2.094765        -1.007827         1.243433
 O         3.357992        -1.425623         1.183621
 C         4.383095        -0.430891         1.385858
 C         4.722527         0.437593         0.128314
 C         3.842171         1.068950        -0.672106
 C         2.379617         0.969597        -0.627485
 O         2.017688        -0.273400        -1.244238
 H        -0.210457         0.988874         1.161795
 H        -0.138440         1.256477        -0.630198
 H        -0.671897        -0.306648         0.149678
 H         1.822625        -0.541810         2.220711
 H         1.497465        -1.825216         1.009271
 H         4.180755         0.255693         2.211905
 H         5.230817        -1.096120         1.796323
 H         5.724439         0.657952        -0.097779
 H         4.214566         1.661199        -1.571025
 H         1.960822         1.774586        -1.078287
