19
Iteration:   224charge 0 multiplicity 1
 C        -0.121202         0.286509         0.298615
 C         1.431922         0.086574        -0.005304
 C         2.092910        -0.610323         1.232048
 O         3.271567        -1.364670         0.969835
 C         4.473478        -0.649689         1.240066
 C         4.767246         0.514383         0.357986
 C         3.995237         1.156005        -0.480889
 C         2.478801         0.944154        -0.782881
 O         1.936966        -0.479558        -1.240238
 H        -0.309862         0.933599         1.183841
 H        -0.753886         0.562963        -0.546968
 H        -0.457386        -0.737354         0.602255
 H         2.192289         0.076906         2.154384
 H         1.275766        -1.320897         1.625792
 H         4.609547        -0.322073         2.356225
 H         5.243572        -1.348953         1.124893
 H         5.890913         0.689263         0.298402
 H         4.375176         1.983487        -1.225121
 H         2.120398         1.728264        -1.523896
