19
Iteration:  4686
 C         0.127299         0.520152         0.335501
 C         1.564881         0.023420         0.031373
 C         2.047079        -0.986870         1.020800
 O         3.334933        -1.562140         0.773739
 C         4.486263        -0.760390         1.248725
 C         4.575745         0.605660         0.603892
 C         3.845606         1.294419        -0.275858
 C         2.523628         0.925674        -0.760636
 O         1.828112        -0.263262        -1.389706
 H        -0.637136        -0.105992        -0.204427
 H        -0.133982         0.345513         1.342517
 H         0.195230         1.602755         0.038415
 H         2.129192        -0.458694         1.991901
 H         1.348537        -1.888284         1.047201
 H         4.393169        -0.456774         2.290175
 H         5.425445        -1.302659         1.250503
 H         5.383179         1.301524         1.105608
 H         4.202221         2.308487        -0.461268
 H         1.981778         1.858218        -0.966555
