19
Iteration:  3923charge 0 multiplicity 1
 C         0.064162         0.511637         0.229014
 C         1.480740        -0.004017         0.065129
 C         2.099946        -0.922861         1.136403
 O         3.314685        -1.418962         0.639013
 C         4.371000        -0.692328         1.189953
 C         4.765482         0.589874         0.493718
 C         3.856691         1.286157        -0.284592
 C         2.443686         0.886173        -0.569471
 O         1.938836        -0.385907        -1.229684
 H        -0.167954         1.147355        -0.701387
 H        -0.768699        -0.384120         0.058944
 H        -0.177459         0.922177         1.219953
 H         2.270616        -0.413722         2.121436
 H         1.511199        -1.864537         1.347238
 H         4.144825        -0.460559         2.217929
 H         5.176150        -1.394425         1.133786
 H         5.762190         0.969985         0.716915
 H         4.146478         2.235605        -0.715318
 H         2.012239         1.732296        -1.038517
