19
Iteration:  3524charge 0 multiplicity 1
 C         0.116041         0.406633         0.334003
 C         1.491788         0.114970         0.089112
 C         2.062414        -0.938174         1.084059
 O         3.390329        -1.422070         0.646656
 C         4.384477        -0.715110         1.326553
 C         4.740913         0.591197         0.485722
 C         3.932996         1.183099        -0.365101
 C         2.464787         0.909718        -0.722869
 O         1.774185        -0.286245        -1.263627
 H        -0.148585         1.260452        -0.120024
 H        -0.641766        -0.254243        -0.158178
 H        -0.144055         0.282638         1.335588
 H         2.120047        -0.551926         2.027191
 H         1.490420        -1.923869         1.059071
 H         3.976933        -0.474558         2.369680
 H         5.277037        -1.501458         1.699115
 H         5.621172         1.233878         0.802486
 H         4.325714         2.165756        -0.775399
 H         2.114365         1.939784        -1.119369
