19
Iteration:  4417
 C         0.004890         0.137632         0.208501
 C         1.515420         0.083195         0.001070
 C         2.038371        -0.908689         1.048160
 O         3.269399        -1.522299         0.874423
 C         4.469215        -0.746569         1.300843
 C         4.796876         0.394996         0.358268
 C         3.943120         1.190216        -0.234572
 C         2.421893         1.089549        -0.464972
 O         1.897917         0.138383        -1.402769
 H        -0.219183        -0.706414         0.847260
 H        -0.355520         1.051042         0.570136
 H        -0.423138        -0.054425        -0.809391
 H         1.972455        -0.479738         2.093009
 H         1.305433        -1.838679         0.907163
 H         4.125339        -0.298725         2.261065
 H         5.275188        -1.452204         1.334227
 H         5.921553         0.427399         0.215640
 H         4.427992         2.003972        -0.822849
 H         1.959944         2.092793        -0.713913
