19
Iteration:  2643
 C         0.000908         0.256263         0.300981
 C         1.510051         0.030572         0.050231
 C         2.057008        -1.022958         1.044974
 O         3.381992        -1.390809         0.841517
 C         4.305386        -0.478228         1.394498
 C         4.829184         0.423407         0.331577
 C         3.947621         1.046619        -0.476682
 C         2.490842         1.074757        -0.562986
 O         1.860163        -0.106650        -1.291093
 H        -0.163050         0.942470         1.136055
 H        -0.604607         0.900457        -0.498399
 H        -0.569657        -0.756755         0.587560
 H         1.809524        -0.721305         2.056489
 H         1.470544        -1.929648         0.850248
 H         3.858178         0.096203         2.254354
 H         5.231818        -0.981928         1.664918
 H         5.906960         0.564452         0.308457
 H         4.496865         1.474515        -1.307873
 H         1.946855         1.885198        -0.814649
