19
Iteration:     1charge 0 multiplicity 1
 C         0.063450         0.407262         0.218311
 C         1.526324         0.040681         0.076423
 C         2.063639        -0.788735         1.239166
 O         3.311867        -1.386716         1.007838
 C         4.442287        -0.588917         1.265900
 C         4.708206         0.530664         0.299876
 C         3.864259         1.122081        -0.546248
 C         2.412702         0.883175        -0.750855
 O         1.928832        -0.399560        -1.217025
 H        -0.111485         0.986156         1.131956
 H        -0.269032         0.999763        -0.637015
 H        -0.555142        -0.495610         0.267657
 H         2.074996        -0.170172         2.152624
 H         1.363620        -1.615269         1.413730
 H         4.398278        -0.176759         2.292348
 H         5.295785        -1.277464         1.248905
 H         5.737582         0.886598         0.320326
 H         4.262981         1.922531        -1.165439
 H         1.925504         1.712191        -1.266975
