19
Iteration:  4362charge 0 multiplicity 1
 C         0.028708         0.360274         0.150468
 C         1.537822         0.030580         0.045038
 C         2.048153        -1.016476         1.102150
 O         3.311317        -1.559623         0.849978
 C         4.450934        -0.819366         1.188250
 C         4.705422         0.499340         0.412267
 C         3.824254         1.281711        -0.243767
 C         2.366357         1.114489        -0.509490
 O         2.024982        -0.041923        -1.320625
 H        -0.484206        -0.234759         0.890007
 H        -0.237837         1.344031         0.377740
 H        -0.254825         0.149348        -0.912383
 H         1.987471        -0.646448         2.131462
 H         1.349535        -1.923202         1.302705
 H         4.498380        -0.639624         2.236270
 H         5.308333        -1.392189         0.973248
 H         5.759827         0.869831         0.438925
 H         4.281902         2.110461        -0.758095
 H         1.817611         2.057069        -0.850891
