19
Iteration:  1754charge 0 multiplicity 1
 C         0.108506         0.453637         0.395633
 C         1.536047         0.021136         0.027315
 C         2.024261        -0.957260         1.088251
 O         3.389865        -1.342857         1.003996
 C         4.303337        -0.377845         1.491724
 C         4.759432         0.604507         0.379907
 C         3.959013         0.901649        -0.705977
 C         2.461548         0.853178        -0.775979
 O         1.832146        -0.317902        -1.311508
 H        -0.050158         0.557580         1.409297
 H        -0.245496         1.382956        -0.076498
 H        -0.497964        -0.495893         0.215402
 H         1.750514        -0.567009         2.048753
 H         1.491125        -1.940380         0.817874
 H         3.841638         0.080929         2.458612
 H         5.172677        -0.863080         1.840690
 H         5.860431         0.784672         0.180314
 H         4.279263         1.253101        -1.627879
 H         1.968356         1.864194        -1.119050
