19
Iteration:  3414charge 0 multiplicity 1
 C        -0.061558         0.191386         0.083304
 C         1.482581         0.062828         0.112994
 C         2.115975        -0.850616         1.179288
 O         3.246600        -1.347691         0.732693
 C         4.470294        -0.719142         1.204602
 C         4.763752         0.379216         0.341634
 C         3.902451         1.197571        -0.352926
 C         2.400501         1.033188        -0.381674
 O         1.992598        -0.105623        -1.228145
 H        -0.419144         0.317149        -0.842326
 H        -0.472829        -0.659013         0.616000
 H        -0.295682         1.012692         0.649473
 H         2.154121        -0.334581         2.226704
 H         1.374951        -1.725426         1.416428
 H         4.447467        -0.450250         2.271865
 H         5.372352        -1.482811         1.064922
 H         5.842302         0.699063         0.109840
 H         4.358315         1.772559        -1.112273
 H         1.866959         2.052536        -0.682018
