19
Iteration:  3257
 C        -0.015513         0.281811         0.277316
 C         1.486432         0.045177         0.089316
 C         2.004238        -0.993677         1.083899
 O         3.346118        -1.416427         0.741125
 C         4.410629        -0.605304         1.269322
 C         4.810980         0.553047         0.453186
 C         3.988536         1.116539        -0.423745
 C         2.472281         1.037991        -0.525096
 O         1.846456        -0.193600        -1.307875
 H        -0.244877         1.287114        -0.185139
 H        -0.584497        -0.450375        -0.117827
 H        -0.197536         0.455618         1.261227
 H         1.993896        -0.437959         2.065773
 H         1.358839        -1.938186         1.198602
 H         4.152767        -0.199210         2.287886
 H         5.301338        -1.355045         1.429939
 H         5.828962         0.751361         0.446413
 H         4.453836         1.974044        -1.066481
 H         1.910124         1.920131        -0.910661
