19
Iteration:  4476charge 0 multiplicity 1
 C         0.189222         0.605359         0.350891
 C         1.556628         0.012148         0.161956
 C         2.034781        -1.242021         0.907143
 O         3.350098        -1.540618         0.661120
 C         4.279913        -0.569365         1.256299
 C         4.676621         0.580420         0.495504
 C         3.900752         1.317288        -0.265369
 C         2.474517         0.914905        -0.606088
 O         1.935125        -0.267595        -1.304420
 H        -0.425469         0.190666         1.146427
 H         0.135040         1.692572         0.639661
 H        -0.310718         0.539078        -0.580326
 H         1.731889        -1.095059         2.010878
 H         1.313634        -1.974631         0.448821
 H         3.878929        -0.272157         2.200611
 H         5.118519        -1.149358         1.625494
 H         5.566120         0.971975         0.906146
 H         4.164461         2.277484        -0.664927
 H         1.867802         1.790380        -1.015206
