19
Iteration:  3183
 C         0.101625         0.305679         0.230837
 C         1.585127        -0.047661         0.033214
 C         2.025915        -1.116630         1.053529
 O         3.356733        -1.536516         1.040652
 C         4.358928        -0.490394         1.308153
 C         4.772081         0.395690         0.197841
 C         3.873035         1.142462        -0.449116
 C         2.389441         1.084592        -0.436972
 O         1.912405         0.072013        -1.358516
 H        -0.241490         0.933515        -0.655679
 H        -0.467834        -0.675234         0.253616
 H        -0.115408         0.899767         1.137527
 H         1.545874        -0.898809         2.110009
 H         1.527773        -2.011326         0.726531
 H         4.103122         0.136607         2.160055
 H         5.168241        -1.116786         1.640424
 H         5.791204         0.435419        -0.009621
 H         4.284023         1.863272        -1.201994
 H         1.774871         2.059684        -0.285315
