19
Iteration:   757charge 0 multiplicity 1
 C         0.061252         0.393253         0.278835
 C         1.496994         0.110525         0.094932
 C         2.013105        -0.832884         1.153414
 O         3.279405        -1.408739         0.905709
 C         4.383881        -0.476129         1.394008
 C         4.828694         0.587922         0.356493
 C         3.919519         1.090720        -0.584334
 C         2.433090         0.833887        -0.770460
 O         1.925073        -0.444414        -1.198154
 H        -0.098828         1.250610         0.955084
 H        -0.286009         0.715702        -0.664959
 H        -0.500064        -0.453782         0.682491
 H         1.954687        -0.405876         2.124368
 H         1.493975        -1.835771         1.089768
 H         3.968146         0.057612         2.332346
 H         5.143906        -1.149113         1.630343
 H         5.875922         0.912578         0.234700
 H         4.487118         1.803372        -1.375207
 H         1.995850         1.733663        -1.362924
