19
Iteration:  2844charge 0 multiplicity 1
 C         0.010472         0.328110         0.164018
 C         1.561069         0.075242         0.036452
 C         2.035660        -0.890228         1.160826
 O         3.210306        -1.598678         0.993961
 C         4.500320        -0.790900         1.072340
 C         4.703937         0.538578         0.315179
 C         3.786359         1.359444        -0.292232
 C         2.373077         1.084468        -0.589449
 O         2.118931        -0.220430        -1.209299
 H        -0.511187         0.611275        -0.799331
 H        -0.473426        -0.603862         0.450141
 H        -0.192560         1.091507         0.894338
 H         1.933079        -0.356076         2.121942
 H         1.326040        -1.773775         1.088204
 H         4.782211        -0.550434         2.200441
 H         5.250786        -1.431584         0.628876
 H         5.804999         0.952600         0.240400
 H         4.150941         2.248865        -0.708204
 H         1.957279         1.930816        -1.030368
