19
Iteration:  2727
 C         0.132168         0.543844         0.410737
 C         1.501294         0.046360         0.056387
 C         2.021642        -1.134556         0.938134
 O         3.373384        -1.479131         0.742285
 C         4.312691        -0.549976         1.297583
 C         4.692211         0.613459         0.576992
 C         3.938694         1.209578        -0.443438
 C         2.465908         0.860066        -0.665428
 O         1.876236        -0.298164        -1.270200
 H         0.080169         1.605926         0.149968
 H        -0.613850         0.061442        -0.199043
 H         0.084280         0.441736         1.516905
 H         1.899535        -0.774505         2.033295
 H         1.448222        -2.033593         0.717330
 H         3.832407        -0.257411         2.343884
 H         5.296427        -1.043647         1.588241
 H         5.732193         0.997206         0.557318
 H         4.321430         2.038170        -1.050747
 H         2.094412         1.801847        -1.229549
