19
Iteration:  2263
 C         0.070304         0.359475         0.267405
 C         1.563060         0.056957         0.120505
 C         2.048388        -0.952621         1.109507
 O         3.399578        -1.340732         1.036491
 C         4.306962        -0.360868         1.436700
 C         4.830927         0.495661         0.275690
 C         3.962047         0.947504        -0.654327
 C         2.477840         0.901554        -0.687125
 O         1.764567        -0.272186        -1.267654
 H        -0.292413         0.462872         1.379965
 H        -0.360392         1.199338        -0.378583
 H        -0.463401        -0.526511        -0.185411
 H         1.792238        -0.539652         2.157255
 H         1.435618        -1.871846         0.942123
 H         3.847984         0.238492         2.295321
 H         5.093122        -0.974593         1.830220
 H         5.908722         0.739723         0.075727
 H         4.359856         1.468580        -1.568888
 H         1.887974         1.713068        -1.224658
