19
Iteration:  3078charge 0 multiplicity 1
 C         0.262604         0.640027         0.455132
 C         1.541426        -0.009090         0.017721
 C         2.093693        -1.174279         0.907572
 O         3.447018        -1.574781         0.893383
 C         4.351738        -0.659002         1.400786
 C         4.573612         0.606473         0.456447
 C         3.798033         1.238094        -0.402521
 C         2.376280         0.959628        -0.715267
 O         1.860954        -0.208636        -1.402889
 H         0.007768         1.342679        -0.223271
 H        -0.586666         0.037667         0.589575
 H         0.524608         1.162324         1.359649
 H         1.647004        -1.095463         1.949017
 H         1.679916        -2.127815         0.409047
 H         3.997754        -0.256701         2.390400
 H         5.260794        -1.301024         1.588944
 H         5.578793         1.003092         0.666062
 H         4.075663         2.234962        -0.726919
 H         1.864374         1.778789        -1.258250
