19
Iteration:    37
 C         0.064215         0.538973         0.147799
 C         1.516036         0.037177         0.154688
 C         1.957778        -0.932228         1.279059
 O         3.279903        -1.442734         1.232286
 C         4.501197        -0.640936         1.053728
 C         4.726644         0.599996         0.222602
 C         3.790521         1.255617        -0.562344
 C         2.414836         0.857442        -0.791786
 O         2.074307        -0.433360        -1.159445
 H        -0.017752         1.405740         0.758767
 H        -0.224939         0.857583        -0.997193
 H        -0.626958        -0.202388         0.467275
 H         1.635204        -0.585937         2.227304
 H         1.323296        -1.842254         1.097944
 H         4.773679        -0.270790         2.045167
 H         5.276026        -1.521657         0.779422
 H         5.593503         1.205403         0.586371
 H         4.046267         2.250092        -0.851371
 H         1.849445         1.593106        -1.271444
