19
Iteration:  4228charge 0 multiplicity 1
 C         0.089044         0.302218         0.166125
 C         1.584472         0.065735         0.112727
 C         1.979745        -1.128795         1.118179
 O         3.270036        -1.485909         0.899170
 C         4.396692        -0.658921         1.245264
 C         4.714470         0.460424         0.303969
 C         3.876547         1.306465        -0.364351
 C         2.416791         1.097419        -0.514517
 O         2.025990        -0.077535        -1.264140
 H        -0.442239        -0.609977        -0.238809
 H        -0.330770         0.515348         1.181331
 H        -0.098211         1.184568        -0.400369
 H         1.813980        -0.725499         2.140646
 H         1.270068        -2.040963         0.906710
 H         4.222222        -0.250334         2.350426
 H         5.145967        -1.452501         1.121578
 H         5.729627         0.581471         0.159460
 H         4.319170         1.954688        -1.193114
 H         1.890388         2.004483        -0.952606
