19
Iteration:  1058
 C         0.076694         0.337261         0.097225
 C         1.623447         0.034706         0.085438
 C         1.988807        -0.647490         1.351227
 O         3.125766        -1.501057         1.143964
 C         4.344369        -0.681324         1.074538
 C         4.589696         0.450974         0.135033
 C         3.826609         1.380036        -0.586080
 C         2.448600         0.960882        -0.788057
 O         2.292715        -0.464718        -0.969841
 H        -0.382940         0.611605         1.109705
 H        -0.220741         1.072787        -0.567095
 H        -0.549839        -0.586643        -0.151026
 H         2.103008        -0.091355         2.370598
 H         1.119525        -1.336341         1.533985
 H         4.498630        -0.194096         2.103984
 H         5.254010        -1.352160         1.046228
 H         5.618620         0.877734         0.171768
 H         4.239687         2.430838        -1.167660
 H         1.797543         1.462019        -1.614145
