19
Iteration:  2505charge 0 multiplicity 1
 C         0.023800         0.440948         0.111953
 C         1.446445         0.047633         0.140742
 C         2.102390        -0.747752         1.230765
 O         3.340711        -1.377730         0.750866
 C         4.502283        -0.716918         1.243967
 C         4.702256         0.566800         0.444653
 C         3.830808         1.181035        -0.433258
 C         2.420642         0.853014        -0.733383
 O         1.929646        -0.424704        -1.120209
 H        -0.570773        -0.226090        -0.734893
 H        -0.465903         0.206765         1.094183
 H         0.056469         1.491264        -0.010075
 H         2.345164        -0.118369         2.082836
 H         1.390691        -1.535267         1.579781
 H         4.660663        -0.711283         2.441426
 H         5.243458        -1.393468         0.835947
 H         5.416169         1.226406         0.771312
 H         4.247605         2.101347        -0.887556
 H         1.951314         1.766120        -1.289972
