19
Iteration:  3837charge 0 multiplicity 1
 C         0.112870         0.359198         0.232375
 C         1.538300         0.019385         0.047085
 C         2.031868        -0.914396         1.173516
 O         3.294556        -1.537578         0.906852
 C         4.415870        -0.715824         1.142194
 C         4.620008         0.506150         0.337147
 C         3.788689         1.320338        -0.338342
 C         2.385992         1.063559        -0.555732
 O         2.064511        -0.260057        -1.312715
 H        -0.176025         0.989413        -0.634396
 H        -0.422997        -0.451386         0.352474
 H         0.055782         0.989847         1.107202
 H         2.043798        -0.334728         2.122689
 H         1.342895        -1.698242         1.273285
 H         4.531674        -0.402474         2.207624
 H         5.359358        -1.323115         1.178985
 H         5.669833         0.817686         0.350522
 H         4.251322         2.150738        -0.870124
 H         1.820080         1.830836        -1.016491
