19
Iteration:  2429
 C         0.104254         0.201043         0.167735
 C         1.554527         0.047377         0.074408
 C         2.101953        -0.719520         1.313977
 O         3.252958        -1.423966         1.180037
 C         4.499594        -0.823470         1.193947
 C         4.570834         0.464901         0.312308
 C         3.810812         1.269987        -0.469465
 C         2.401030         1.098589        -0.804472
 O         1.994584        -0.263769        -1.320157
 H        -0.272864         1.211824        -0.412175
 H        -0.259417        -0.733453        -0.359184
 H        -0.161226         0.217825         1.198026
 H         2.115379         0.131920         2.045527
 H         1.246674        -1.298585         1.669061
 H         4.832761        -0.563384         2.167989
 H         5.127030        -1.531111         0.783742
 H         5.573223         0.685922         0.295706
 H         4.333708         1.968025        -1.151861
 H         1.930380         1.920801        -1.406592
