19
Iteration:  2159
 C         0.087896         0.513182         0.434728
 C         1.541508         0.051729        -0.097682
 C         2.117998        -0.960763         1.044486
 O         3.424256        -1.387196         1.116977
 C         4.387777        -0.482848         1.485033
 C         4.677863         0.595305         0.434135
 C         3.843236         0.968633        -0.634499
 C         2.429957         0.884823        -0.861468
 O         1.802899        -0.333770        -1.381423
 H         0.220945         1.166883         1.242949
 H        -0.463597         0.874466        -0.451218
 H        -0.475031        -0.524528         0.903617
 H         1.818704        -0.561097         2.112922
 H         1.582495        -1.920956         0.890642
 H         4.198657         0.037186         2.534841
 H         5.369609        -1.087602         1.627821
 H         5.672450         0.938165         0.438557
 H         4.401622         1.568663        -1.342496
 H         1.948277         1.674859        -1.348089
