19
Iteration:  4977charge 0 multiplicity 1
 C         0.010204         0.366860         0.094815
 C         1.484378         0.063297         0.080828
 C         2.009938        -1.094244         1.057693
 O         3.343695        -1.518479         0.733760
 C         4.379748        -0.619420         1.294854
 C         4.792497         0.462535         0.310638
 C         3.903866         1.269918        -0.306103
 C         2.416558         1.080566        -0.349727
 O         2.007308        -0.120542        -1.202641
 H        -0.449835         0.423745         1.117080
 H        -0.244722         1.365261        -0.419114
 H        -0.545699        -0.535379        -0.360458
 H         1.716616        -0.941299         2.054986
 H         1.414467        -1.931422         0.762754
 H         4.186678        -0.245290         2.304322
 H         5.226335        -1.381277         1.469721
 H         5.879520         0.625229         0.073779
 H         4.299207         2.027501        -0.985568
 H         1.886757         1.941397        -0.670329
