19
Iteration:  3017
 C        -0.033283         0.234480         0.258090
 C         1.455883         0.065936         0.068494
 C         2.037139        -0.944978         1.068215
 O         3.340198        -1.365698         0.747537
 C         4.396477        -0.649328         1.308468
 C         4.813426         0.416411         0.330617
 C         3.939948         1.088386        -0.362838
 C         2.421209         1.038952        -0.453179
 O         1.948664        -0.052712        -1.273069
 H        -0.338970         0.480646        -0.863729
 H        -0.366950        -0.842611         0.543044
 H        -0.531925         0.938400         0.997667
 H         2.023923        -0.476166         2.030679
 H         1.390818        -1.780526         1.175468
 H         4.170741        -0.078553         2.356759
 H         5.263127        -1.282424         1.576149
 H         5.925037         0.453639         0.065074
 H         4.248487         1.820623        -1.067520
 H         2.170927         1.945965        -0.982677
