19
Iteration:  4077charge 0 multiplicity 1
 C         0.113304         0.642391         0.442851
 C         1.537172        -0.068495         0.041055
 C         2.012763        -1.228269         0.977012
 O         3.337510        -1.461050         0.688142
 C         4.273101        -0.507566         1.317881
 C         4.677820         0.643958         0.514140
 C         3.967703         1.237218        -0.459782
 C         2.450968         0.898262        -0.650449
 O         1.986361        -0.330803        -1.242673
 H         0.125131         1.730295         0.074829
 H        -0.706437         0.019183         0.078161
 H         0.052010         0.766545         1.501904
 H         1.595618        -1.125217         2.020815
 H         1.376866        -2.073514         0.563965
 H         3.704049        -0.202545         2.356893
 H         5.085398        -1.104178         1.654657
 H         5.700547         0.923069         0.550221
 H         4.513912         2.070099        -1.023319
 H         1.928192         1.722222        -1.067935
