19
Iteration:  3738
 C         0.119861         0.360822         0.411085
 C         1.574104         0.059234        -0.005707
 C         2.082423        -0.949630         1.025536
 O         3.350372        -1.596860         0.949175
 C         4.401198        -0.696949         1.280209
 C         4.655789         0.550748         0.424923
 C         3.816176         1.255237        -0.370462
 C         2.385227         1.020662        -0.741252
 O         1.915632        -0.172573        -1.394040
 H        -0.090251         1.440500        -0.091182
 H        -0.578300        -0.288872        -0.013447
 H         0.071241         0.268284         1.529478
 H         1.981327        -0.412605         2.070582
 H         1.395816        -1.779361         0.970785
 H         4.245136        -0.250851         2.243821
 H         5.422220        -1.367503         1.339267
 H         5.732921         0.903279         0.769136
 H         4.281281         2.180050        -0.782789
 H         1.809222         1.884208        -1.179037
