19
Iteration:  1287
 C         0.019766         0.369743         0.216375
 C         1.558262         0.060369         0.082380
 C         2.028995        -0.945760         1.136543
 O         3.370443        -1.380519         1.111223
 C         4.371645        -0.397607         1.482380
 C         4.777171         0.401768         0.194629
 C         3.905509         1.020886        -0.636750
 C         2.484596         0.939215        -0.746350
 O         1.871853        -0.261173        -1.256448
 H        -0.255534         0.582531         1.242133
 H        -0.320478         1.138203        -0.439545
 H        -0.526230        -0.612808         0.013667
 H         1.781887        -0.520521         2.103330
 H         1.347044        -1.840126         1.156055
 H         3.868495         0.318311         2.114611
 H         5.213950        -0.826053         1.927611
 H         5.837414         0.531858         0.059956
 H         4.457414         1.690352        -1.422131
 H         1.918327         1.893099        -1.138610
