19
Iteration:  2475
 C        -0.010781         0.401698         0.045474
 C         1.439416         0.045930         0.092176
 C         2.055351        -0.773416         1.344500
 O         3.297858        -1.448715         0.943648
 C         4.475898        -0.699434         1.117605
 C         4.733921         0.539721         0.269858
 C         3.847777         1.310740        -0.319197
 C         2.446986         0.942498        -0.693296
 O         2.006498        -0.470297        -1.152402
 H        -0.560102         0.420661        -0.960127
 H        -0.518719        -0.258044         0.754029
 H        -0.102006         1.455375         0.455399
 H         2.139890        -0.200609         2.301365
 H         1.259077        -1.510414         1.476174
 H         4.741348        -0.437514         2.122595
 H         5.226311        -1.348109         0.716593
 H         5.756116         0.933201         0.307079
 H         4.324648         2.209666        -0.797636
 H         1.945926         1.689930        -1.274217
