19
Iteration:  3926
 C         0.054725         0.479016         0.219276
 C         1.449790        -0.011222         0.078197
 C         2.105414        -0.954811         1.135964
 O         3.308895        -1.421741         0.659721
 C         4.363450        -0.693449         1.186988
 C         4.761581         0.597715         0.468013
 C         3.851247         1.296290        -0.304106
 C         2.459189         0.915246        -0.558079
 O         1.952077        -0.368924        -1.214500
 H        -0.052790         1.141496        -0.705147
 H        -0.640332        -0.307182         0.076281
 H        -0.132108         0.977258         1.182556
 H         2.232613        -0.404412         2.019439
 H         1.463199        -1.734087         1.245317
 H         4.180965        -0.491028         2.350139
 H         5.201874        -1.451970         1.201088
 H         5.791745         0.841384         0.606316
 H         4.184117         2.295719        -0.693024
 H         1.994689         1.705442        -1.087735
