19
Iteration:  1077charge 0 multiplicity 1
 C         0.078894         0.292982         0.063533
 C         1.540882         0.120623         0.132096
 C         2.002091        -0.664840         1.350074
 O         3.206007        -1.389786         1.204327
 C         4.379479        -0.675627         1.073875
 C         4.709060         0.446044         0.206413
 C         3.829542         1.273527        -0.494051
 C         2.391677         0.927600        -0.792158
 O         2.164723        -0.460030        -1.177813
 H        -0.194914         0.563609         1.022404
 H        -0.292144         0.999068        -0.661901
 H        -0.373573        -0.662080        -0.018519
 H         2.095564        -0.048959         2.218596
 H         1.170129        -1.317942         1.696763
 H         4.557232        -0.347719         2.166178
 H         5.113460        -1.392189         0.962948
 H         5.760509         0.637616         0.208182
 H         4.030929         2.234185        -1.062797
 H         1.970259         1.755359        -1.383656
