19
Iteration:    39charge 0 multiplicity 1
 C         0.082475         0.537534         0.130792
 C         1.503170         0.017637         0.162235
 C         1.959831        -0.933265         1.272503
 O         3.282458        -1.440988         1.238310
 C         4.494933        -0.639455         1.043868
 C         4.715856         0.607307         0.218022
 C         3.803435         1.249607        -0.557943
 C         2.422679         0.845938        -0.792748
 O         2.069253        -0.425913        -1.167714
 H        -0.037208         1.469591         0.780477
 H        -0.231648         0.837124        -0.934976
 H        -0.650873        -0.236235         0.514784
 H         1.667656        -0.523120         2.217626
 H         1.272895        -1.825987         1.207594
 H         4.773791        -0.264087         2.057947
 H         5.274102        -1.512028         0.786762
 H         5.615147         1.157115         0.596040
 H         4.054231         2.343894        -0.773283
 H         1.796457         1.663025        -1.253171
