19
Iteration:  1780
 C         0.044250         0.303361         0.414679
 C         1.509271         0.071466        -0.009116
 C         2.031097        -0.875502         1.117979
 O         3.428121        -1.371216         1.138565
 C         4.315276        -0.404184         1.469005
 C         4.750903         0.475040         0.354637
 C         4.047443         0.865818        -0.690786
 C         2.448102         0.916981        -0.850613
 O         1.782936        -0.206217        -1.427633
 H        -0.096602         0.274256         1.588805
 H        -0.403445         1.249116         0.054185
 H        -0.480434        -0.610571         0.223254
 H         1.876740        -0.271543         2.069606
 H         1.424569        -1.770155         1.087193
 H         3.982470         0.296725         2.266286
 H         5.249368        -0.889946         1.916258
 H         5.815569         0.754356         0.355276
 H         4.390918         1.574198        -1.511346
 H         2.054269         1.868010        -1.061675
