19
Iteration:  2238
 C         0.055941         0.376491         0.163684
 C         1.508067         0.039588         0.212464
 C         2.022266        -1.042892         1.162610
 O         3.410961        -1.291054         0.973194
 C         4.276095        -0.264095         1.423012
 C         4.765573         0.369335         0.195483
 C         3.914711         0.943320        -0.731966
 C         2.442789         0.947519        -0.542628
 O         1.982704        -0.236466        -1.194123
 H        -0.095632         0.698208         1.191753
 H        -0.276870         1.140412        -0.525764
 H        -0.790628        -0.480344        -0.061887
 H         1.788740        -0.851712         2.277956
 H         1.491850        -1.971646         0.841167
 H         3.722505         0.472114         2.204492
 H         5.090613        -0.824780         1.893789
 H         5.837142         0.215821        -0.118303
 H         4.235830         1.341879        -1.717194
 H         1.828569         1.748117        -0.995842
