19
Iteration:  2024
 C        -0.030399         0.171247         0.124785
 C         1.439238         0.072286        -0.025709
 C         2.156345        -0.652998         1.249353
 O         3.354470        -1.341363         1.187849
 C         4.543379        -0.720646         1.316303
 C         4.673126         0.396965         0.280043
 C         3.835184         1.062108        -0.521638
 C         2.365384         1.045215        -0.687062
 O         1.956967        -0.219212        -1.317006
 H        -0.391329         0.562445         1.181036
 H        -0.515219         0.732736        -0.713637
 H        -0.512914        -0.769002        -0.108317
 H         2.330448         0.168210         2.042278
 H         1.324251        -1.201425         1.626731
 H         4.566078        -0.321135         2.285065
 H         5.371195        -1.532334         1.262383
 H         5.785726         0.622980         0.012646
 H         4.210723         1.743724        -1.272101
 H         2.006316         1.948057        -1.035908
