19
Iteration:  4039charge 0 multiplicity 1
 C         0.060444         0.354329         0.260814
 C         1.539349         0.063123         0.096789
 C         2.053868        -1.043522         1.033098
 O         3.382828        -1.505040         0.788823
 C         4.327474        -0.555042         1.389180
 C         4.764369         0.504660         0.438097
 C         3.952930         1.135905        -0.453674
 C         2.477604         1.082519        -0.524478
 O         1.810628        -0.160658        -1.320225
 H        -0.161417         1.221275        -0.293711
 H        -0.572254        -0.369359        -0.220908
 H        -0.299019         0.428208         1.314510
 H         1.946184        -0.865409         2.081093
 H         1.467909        -1.962022         0.714962
 H         3.884876        -0.129099         2.240714
 H         5.254928        -1.125057         1.662861
 H         5.859610         0.485710         0.119468
 H         4.400176         1.827790        -1.137046
 H         1.957940         2.111434        -0.819531
