19
Iteration:  2594charge 0 multiplicity 1
 C         0.096499         0.417009         0.166515
 C         1.514794         0.006813         0.084525
 C         2.013860        -1.093581         1.167623
 O         3.348888        -1.494860         0.995792
 C         4.362344        -0.583711         1.287004
 C         4.758814         0.545982         0.248928
 C         3.909637         1.197024        -0.550810
 C         2.433479         1.051251        -0.555499
 O         1.925038        -0.217199        -1.238158
 H        -0.498191         0.025390         1.067671
 H        -0.027313         1.450357         0.252962
 H        -0.406939         0.021198        -0.710735
 H         1.824383        -0.606415         2.135314
 H         1.402049        -2.004094         1.124297
 H         4.047894        -0.077467         2.165341
 H         5.305219        -1.030746         1.483296
 H         5.817915         0.703033         0.366317
 H         4.266096         2.064055        -1.157137
 H         1.762541         1.828176        -0.987275
