19
Iteration:  4003charge 0 multiplicity 1
 C         0.022092         0.150707         0.268300
 C         1.567249         0.039612        -0.004724
 C         2.053484        -0.943383         1.063876
 O         3.354829        -1.542514         1.111388
 C         4.445921        -0.643204         1.318086
 C         4.743306         0.368583         0.303600
 C         3.820415         1.098952        -0.407235
 C         2.391696         1.082210        -0.465260
 O         1.916016         0.152423        -1.554880
 H        -0.311973         0.937911        -0.534152
 H        -0.445185        -0.834376         0.202552
 H        -0.155644         0.701113         1.272786
 H         1.803129        -0.350410         2.002417
 H         1.362694        -1.682303         0.987121
 H         4.358005        -0.170390         2.197084
 H         5.327465        -1.327952         1.515060
 H         5.862736         0.478714         0.016911
 H         4.304066         1.993346        -0.938062
 H         1.976676         2.132344        -0.510252
