19
Iteration:  2099charge 0 multiplicity 1
 C         0.061335         0.581544         0.202414
 C         1.516012        -0.005320         0.149658
 C         2.043393        -0.962918         1.166103
 O         3.351541        -1.370927         0.894598
 C         4.353368        -0.518568         1.362745
 C         4.699570         0.602460         0.329256
 C         3.837953         1.132105        -0.596731
 C         2.413858         0.808281        -0.724190
 O         2.028244        -0.446470        -1.136842
 H         0.064522         1.232802         1.224809
 H        -0.265369         1.298959        -0.608059
 H        -0.654225        -0.103083         0.246720
 H         1.950981        -0.718463         2.227563
 H         1.312113        -1.755709         0.907450
 H         4.126070        -0.176361         2.492375
 H         5.283349        -1.204246         1.400569
 H         5.793876         0.926226         0.144842
 H         4.225699         1.810203        -1.358395
 H         1.929827         1.581766        -1.427943
