19
Iteration:   474charge 0 multiplicity 1
 C         0.051401         0.478697         0.351672
 C         1.485446        -0.017524        -0.021967
 C         2.022888        -0.827209         1.171807
 O         3.378210        -1.327593         1.137083
 C         4.538015        -0.564523         1.358617
 C         4.689478         0.582715         0.390137
 C         3.823051         0.994195        -0.552550
 C         2.393865         0.827011        -0.837312
 O         1.900808        -0.371171        -1.381575
 H         0.186613         1.275151         1.155900
 H        -0.360294         0.920269        -0.561460
 H        -0.630586        -0.338757         0.713021
 H         1.755542        -0.185751         2.081350
 H         1.532046        -1.748286         1.028897
 H         4.650597        -0.195760         2.343006
 H         5.341608        -1.415375         1.150644
 H         5.624504         1.094267         0.374088
 H         4.309276         1.811483        -1.314983
 H         2.019783         1.748628        -1.341042
