19
Iteration:   571charge 0 multiplicity 1
 C         0.083162         0.385321         0.228039
 C         1.583222        -0.015308        -0.020795
 C         2.035131        -0.828502         1.263917
 O         3.313744        -1.445776         1.379259
 C         4.479562        -0.587989         1.174795
 C         4.645820         0.490492         0.254160
 C         3.843762         1.157458        -0.497125
 C         2.424872         0.882474        -0.761710
 O         1.940053        -0.275460        -1.453277
 H        -0.049713         0.893428         1.288750
 H        -0.374419         0.939724        -0.596484
 H        -0.591393        -0.536116         0.318484
 H         1.950350         0.050087         1.933830
 H         1.216850        -1.588091         1.319754
 H         4.671688        -0.088456         2.234439
 H         5.220275        -1.413480         0.971389
 H         5.622234         0.933190         0.378239
 H         4.138160         2.158072        -1.096717
 H         1.936420         1.848117        -1.217168
