19
Iteration:  2227
 C        -0.013695         0.445558         0.211816
 C         1.542699        -0.026696         0.118468
 C         2.052056        -1.040878         1.130160
 O         3.391835        -1.374294         1.057488
 C         4.217050        -0.278002         1.380827
 C         4.828813         0.417365         0.066822
 C         3.910806         1.002198        -0.633107
 C         2.441080         0.951344        -0.513110
 O         1.988084        -0.267146        -1.196455
 H        -0.326686         0.910090         1.151413
 H        -0.097816         1.122793        -0.619647
 H        -0.534848        -0.653744         0.073447
 H         1.759857        -0.676146         2.198076
 H         1.539126        -2.022846         0.959732
 H         3.621545         0.512443         2.072771
 H         5.037096        -0.591883         2.039823
 H         5.885236         0.248132        -0.214260
 H         4.217293         1.312269        -1.646480
 H         2.028532         1.924332        -0.886420
