19
Iteration:  4949charge 0 multiplicity 1
 C         0.126737         0.454119         0.269821
 C         1.528873        -0.023513         0.012334
 C         2.054707        -1.095002         1.039850
 O         3.373298        -1.589169         0.760545
 C         4.344621        -0.661902         1.249249
 C         4.684225         0.593604         0.528999
 C         3.905827         1.280324        -0.330603
 C         2.438269         0.981656        -0.596329
 O         1.900098        -0.117112        -1.333670
 H         0.003429         0.896972         1.248241
 H        -0.118904         1.208543        -0.404692
 H        -0.647164        -0.296165         0.187108
 H         1.855126        -0.668772         2.106367
 H         1.416801        -2.045723         0.925406
 H         4.072562        -0.430421         2.320988
 H         5.158052        -1.343894         1.393206
 H         5.643971         0.927415         0.810991
 H         4.347679         2.209396        -0.662960
 H         1.844039         1.961451        -0.807479
