19
Iteration:  3515charge 0 multiplicity 1
 C         0.068460         0.472395         0.366651
 C         1.501183         0.022923         0.043739
 C         2.096979        -0.906675         1.014724
 O         3.398131        -1.480316         0.675681
 C         4.409933        -0.707307         1.330683
 C         4.784644         0.626951         0.575589
 C         3.898850         1.174736        -0.350597
 C         2.439738         0.883588        -0.737322
 O         1.767698        -0.283225        -1.297669
 H        -0.140580         1.456832         0.078064
 H        -0.543429        -0.175678        -0.141133
 H        -0.143510         0.487662         1.423943
 H         2.125162        -0.464565         2.025084
 H         1.393732        -1.759066         1.065022
 H         4.054859        -0.373976         2.402956
 H         5.388694        -1.348052         1.338981
 H         5.688814         1.110615         0.913580
 H         4.170988         2.160553        -0.824120
 H         1.899746         1.788613        -1.225446
