19
Iteration:  1889
 C        -0.019784         0.396501         0.242076
 C         1.485829         0.035255         0.001432
 C         2.135395        -0.714408         1.195272
 O         3.306849        -1.363945         0.991567
 C         4.466947        -0.627903         1.310785
 C         4.698838         0.593181         0.434715
 C         3.858660         1.030652        -0.573654
 C         2.430130         0.852479        -0.790407
 O         1.943783        -0.398252        -1.266075
 H        -0.052380         1.409899         0.834933
 H        -0.699598         0.495846        -0.602522
 H        -0.400021        -0.391923         0.823988
 H         2.285911        -0.091689         2.101539
 H         1.511921        -1.534551         1.552648
 H         4.347772        -0.284899         2.448786
 H         5.373217        -1.261513         1.446691
 H         5.682040         0.932108         0.535197
 H         4.288828         1.910640        -1.173372
 H         1.923886         1.687883        -1.383164
