19
Iteration:  2259
 C         0.055992         0.373078         0.287236
 C         1.585025         0.039345         0.130072
 C         2.025198        -0.977502         1.118984
 O         3.382007        -1.318348         1.002321
 C         4.316280        -0.345819         1.460708
 C         4.833651         0.470938         0.265720
 C         3.918341         0.939438        -0.677478
 C         2.478119         0.935157        -0.691708
 O         1.792075        -0.269994        -1.234692
 H        -0.301885         0.444972         1.249710
 H        -0.218155         1.072677        -0.474680
 H        -0.421083        -0.568109        -0.302385
 H         1.754642        -0.577942         2.125604
 H         1.477297        -1.916142         0.934415
 H         3.823732         0.309810         2.319064
 H         5.181651        -0.941720         1.835348
 H         5.893229         0.713000         0.009824
 H         4.458878         1.373062        -1.531498
 H         1.962425         1.764973        -1.123177
