19
Iteration:  3291
 C         0.077185         0.516541         0.313362
 C         1.496560         0.075102         0.090706
 C         2.105872        -0.951847         1.016449
 O         3.424102        -1.355709         0.645181
 C         4.496924        -0.709305         1.297728
 C         4.651377         0.590596         0.650789
 C         3.848454         1.121220        -0.343878
 C         2.398110         0.892812        -0.672749
 O         1.792155        -0.369486        -1.305794
 H        -0.025931         1.377887        -0.347096
 H        -0.625093        -0.187848         0.044033
 H        -0.085077         0.754785         1.287230
 H         2.144117        -0.590851         2.089977
 H         1.464501        -1.913997         0.958931
 H         4.449512        -0.509909         2.366094
 H         5.440427        -1.367711         1.127844
 H         5.580714         1.081978         0.768686
 H         4.205612         2.101021        -0.806796
 H         2.038393         1.904169        -1.116985
