19
Iteration:   734
 C         0.005156         0.317532         0.371209
 C         1.517402         0.043486        -0.067755
 C         2.086607        -0.746788         1.166210
 O         3.336335        -1.358930         1.059918
 C         4.381448        -0.537688         1.390047
 C         4.683428         0.491530         0.427641
 C         3.922698         1.026290        -0.553245
 C         2.477054         0.885447        -0.862262
 O         1.884058        -0.352672        -1.403578
 H         0.101187         1.225536         1.023291
 H        -0.752876         0.519827        -0.265109
 H        -0.310380        -0.387979         1.122828
 H         2.152505        -0.036241         1.934631
 H         1.574929        -1.720705         1.459142
 H         4.317591        -0.033279         2.452559
 H         5.180780        -1.225420         1.333081
 H         5.671023         0.925509         0.574191
 H         4.496676         1.982072        -1.147315
 H         2.098286         1.843523        -1.420098
