19
Iteration:   231charge 0 multiplicity 1
 C        -0.107360         0.261650         0.308388
 C         1.472631         0.086638        -0.007231
 C         2.087104        -0.609788         1.231063
 O         3.288663        -1.323278         0.898749
 C         4.453811        -0.642741         1.337384
 C         4.794442         0.475550         0.337077
 C         3.965673         1.169897        -0.487473
 C         2.502344         0.938939        -0.786101
 O         1.859799        -0.492499        -1.231071
 H        -0.263194         0.995567         1.045758
 H        -0.643007         0.589074        -0.724837
 H        -0.350957        -0.693903         0.669693
 H         2.293824         0.070537         2.043883
 H         1.376783        -1.291961         1.621504
 H         4.475080        -0.336190         2.361141
 H         5.296033        -1.380297         1.241225
 H         5.862350         0.678790         0.235055
 H         4.426445         2.072621        -0.949350
 H         2.067871         1.655003        -1.386855
