19
Iteration:   292
 C         0.149714         0.567559         0.231850
 C         1.536872         0.010557         0.077777
 C         1.997375        -0.949592         1.181293
 O         3.348120        -1.463808         1.179252
 C         4.455164        -0.507497         1.192115
 C         4.718420         0.621908         0.281579
 C         3.849862         1.185365        -0.571186
 C         2.410556         0.862506        -0.790672
 O         1.885031        -0.486465        -1.210191
 H         0.091017         1.366885         1.047644
 H        -0.181996         0.992576        -0.626585
 H        -0.713094        -0.141067         0.459233
 H         1.677316        -0.534213         2.228980
 H         1.369293        -1.907487         0.997978
 H         4.518941        -0.114933         2.253234
 H         5.301678        -1.164530         1.075864
 H         5.695417         1.046070         0.384395
 H         4.239712         1.962849        -1.192487
 H         1.802590         1.669343        -1.318502
