19
Iteration:  2664
 C         0.154425         0.348259         0.391769
 C         1.525709         0.020864         0.086043
 C         2.052637        -1.084701         0.970353
 O         3.374688        -1.523711         0.970879
 C         4.325432        -0.550164         1.458817
 C         4.753694         0.555815         0.386646
 C         3.910277         1.106451        -0.589258
 C         2.437508         0.987769        -0.628926
 O         1.833087        -0.053975        -1.455866
 H        -0.147478         1.297317         0.873715
 H        -0.491745         0.551245        -0.579496
 H        -0.212119        -0.566453         1.122627
 H         1.875001        -0.736730         1.981257
 H         1.415685        -1.950679         0.920940
 H         4.026971         0.040229         2.323002
 H         5.101615        -1.203321         1.695062
 H         5.811720         0.830247         0.466951
 H         4.389961         1.953462        -1.075062
 H         1.936933         1.890031        -0.844551
