19
Iteration:  2191
 C         0.200752         0.408761         0.348224
 C         1.618339        -0.027371         0.039284
 C         2.055853        -1.055098         1.157948
 O         3.350250        -1.414780         1.238670
 C         4.263178        -0.385905         1.412378
 C         4.684348         0.451194         0.179116
 C         3.891282         1.106494        -0.662485
 C         2.463164         0.960369        -0.782385
 O         1.870296        -0.224837        -1.376332
 H         0.004453         1.049101         1.166515
 H        -0.312461         0.746865        -0.574113
 H        -0.464026        -0.475213         0.513737
 H         1.666747        -0.611852         2.118936
 H         1.513732        -1.985054         0.984341
 H         3.917524         0.335075         2.262740
 H         5.150469        -1.033426         1.776363
 H         5.726186         0.609172         0.110801
 H         4.176136         1.734613        -1.479791
 H         1.919700         1.835514        -0.940104
