19
Iteration:  1705charge 0 multiplicity 1
 C         0.112456         0.612760         0.251977
 C         1.515966        -0.015772         0.135172
 C         2.031335        -1.111387         1.125547
 O         3.373176        -1.512079         1.030836
 C         4.316966        -0.342662         1.309431
 C         4.723956         0.575200         0.299661
 C         3.898892         1.121105        -0.617010
 C         2.401635         0.905587        -0.662095
 O         1.947157        -0.459607        -1.245749
 H         0.298549         1.616654         0.869681
 H        -0.140217         1.062212        -0.737243
 H        -0.734908         0.117236         0.651071
 H         1.833906        -0.676637         2.163431
 H         1.451022        -1.957320         0.881203
 H         3.846320         0.209937         2.172435
 H         5.291903        -0.706158         1.872219
 H         5.758493         0.863842         0.171208
 H         4.308393         1.828542        -1.476642
 H         1.894834         1.704902        -1.196298
