19
Iteration:  2288
 C         0.042309         0.444194         0.431239
 C         1.530380        -0.061951        -0.048335
 C         2.043330        -0.909582         1.143511
 O         3.399865        -1.440269         1.125212
 C         4.412083        -0.446716         1.441398
 C         4.717652         0.560155         0.327106
 C         3.958380         1.031221        -0.611995
 C         2.474878         0.881718        -0.863408
 O         1.804710        -0.305329        -1.421510
 H        -0.070458         0.633256         1.570242
 H        -0.275418         1.366653        -0.137798
 H        -0.664839        -0.260192         0.189747
 H         1.938571        -0.202911         1.979019
 H         1.367855        -1.745967         1.349376
 H         4.085722         0.068860         2.311909
 H         5.283072        -1.088858         1.757192
 H         5.610015         1.099070         0.373046
 H         4.387458         1.823122        -1.215869
 H         1.865009         1.710272        -1.237883
