19
Iteration:  2845charge 0 multiplicity 1
 C        -0.001027         0.328185         0.166589
 C         1.560360         0.077760         0.041860
 C         2.034436        -0.889074         1.160062
 O         3.215329        -1.593580         0.986578
 C         4.501024        -0.786944         1.070198
 C         4.710405         0.534644         0.325372
 C         3.784643         1.355061        -0.289278
 C         2.375586         1.079654        -0.591631
 O         2.116442        -0.222844        -1.205272
 H        -0.472729         0.602296        -0.773216
 H        -0.492628        -0.568264         0.412004
 H        -0.195122         1.067342         0.873796
 H         1.941708        -0.364843         2.081130
 H         1.303309        -1.757240         1.118654
 H         4.779685        -0.547744         2.140514
 H         5.280406        -1.457758         0.632351
 H         5.799021         0.962792         0.269326
 H         4.161547         2.259953        -0.723145
 H         1.947895         1.944870        -1.082795
