19
Iteration:  3465charge 0 multiplicity 1
 C         0.180222         0.451393         0.318054
 C         1.594117         0.049900         0.027970
 C         2.037633        -1.017138         1.076144
 O         3.339150        -1.607817         0.961228
 C         4.412690        -0.716670         1.119013
 C         4.594392         0.608715         0.443105
 C         3.809651         1.305233        -0.320376
 C         2.448112         1.011207        -0.693367
 O         1.909686        -0.257715        -1.324220
 H        -0.065954         1.438333        -0.328676
 H        -0.510411        -0.442403         0.062516
 H         0.010286         0.939374         1.340094
 H         1.944057        -0.571776         2.044329
 H         1.337373        -1.852963         1.096255
 H         4.459982        -0.412374         2.154456
 H         5.293977        -1.275210         0.835349
 H         5.557965         1.055158         0.655747
 H         4.084045         2.303881        -0.617052
 H         1.930879         1.818095        -1.045042
