19
Iteration:  1767charge 0 multiplicity 1
 C         0.009836         0.326487         0.481077
 C         1.531545         0.082723         0.046605
 C         2.052855        -0.936344         1.056824
 O         3.349209        -1.404265         1.048122
 C         4.372231        -0.288724         1.532040
 C         4.702266         0.550971         0.344376
 C         3.958064         0.880261        -0.712686
 C         2.533079         0.858379        -0.794393
 O         1.833655        -0.235881        -1.410240
 H         0.041599         0.525062         1.550417
 H        -0.415813         1.223360        -0.054116
 H        -0.718579        -0.414201         0.029726
 H         1.892625        -0.454922         2.038173
 H         1.318192        -1.814482         1.163747
 H         3.989930         0.173687         2.503729
 H         5.220701        -0.934663         1.702825
 H         5.852086         0.736400         0.313736
 H         4.648826         1.207388        -1.467743
 H         2.270096         1.783134        -1.397390
