19
Iteration:  1880
 C         0.047658         0.395793         0.236375
 C         1.490333         0.013470         0.058591
 C         2.038687        -0.749908         1.249198
 O         3.304939        -1.399247         0.943093
 C         4.435678        -0.557766         1.312703
 C         4.739103         0.543215         0.363530
 C         3.942907         1.078315        -0.544287
 C         2.394260         0.876802        -0.819436
 O         1.953102        -0.406652        -1.218465
 H        -0.181219         1.359199         0.893985
 H        -0.428396         0.326889        -0.742912
 H        -0.398180        -0.397780         0.769779
 H         2.038778        -0.057337         2.113856
 H         1.347257        -1.509747         1.483416
 H         4.172382         0.074411         2.219315
 H         5.285466        -1.313271         1.389752
 H         5.671349         1.038421         0.392372
 H         4.332492         1.949865        -1.096506
 H         1.915442         1.687742        -1.259011
