19
Iteration:  2950charge 0 multiplicity 1
 C         0.159472         0.371028         0.259794
 C         1.578260         0.045573         0.007710
 C         2.037760        -0.928774         1.161181
 O         3.268649        -1.532100         0.982371
 C         4.429633        -0.781462         1.095628
 C         4.571381         0.535229         0.417555
 C         3.798494         1.383385        -0.353296
 C         2.454489         1.097859        -0.631034
 O         1.998976        -0.320264        -1.306386
 H         0.023100         1.435256        -0.257749
 H        -0.500926        -0.463330        -0.233169
 H        -0.170118         0.403308         1.366793
 H         1.930819        -0.254223         2.024961
 H         1.368564        -1.752340         1.278423
 H         4.750574        -0.636719         2.221469
 H         5.233312        -1.476632         0.694485
 H         5.606464         1.013619         0.502274
 H         4.216265         2.272391        -0.714940
 H         1.849871         1.889906        -1.148284
