19
Iteration:  3543
 C         0.064514         0.352834         0.306777
 C         1.529745         0.057074         0.147006
 C         2.042870        -0.966158         1.071220
 O         3.319803        -1.399944         0.698845
 C         4.348900        -0.620221         1.282241
 C         4.741099         0.534906         0.433387
 C         3.936522         1.124940        -0.408972
 C         2.438620         0.992164        -0.627611
 O         1.935433        -0.199072        -1.219345
 H        -0.446151         1.230647        -0.329022
 H        -0.592788        -0.577218        -0.195455
 H        -0.341660         0.440162         1.358295
 H         2.027430        -0.685578         2.190728
 H         1.406712        -1.889787         0.873509
 H         4.177447        -0.323880         2.289685
 H         5.219172        -1.213714         1.243758
 H         5.879497         0.623915         0.568471
 H         4.342116         1.915768        -1.043831
 H         1.965528         1.836292        -1.040454
