19
Iteration:   423
 C         0.190500         0.457353         0.241031
 C         1.612123         0.013285         0.101567
 C         2.017746        -0.898285         1.281612
 O         3.315068        -1.451667         1.063827
 C         4.339669        -0.441765         1.363027
 C         4.682600         0.501565         0.193871
 C         3.853333         1.127427        -0.678469
 C         2.366082         0.908949        -0.755868
 O         1.960298        -0.416110        -1.255477
 H         0.022479         0.828394         1.299341
 H        -0.140974         1.255889        -0.347590
 H        -0.447348        -0.462757         0.078779
 H         1.966270        -0.294890         2.167044
 H         1.292787        -1.744857         1.331441
 H         4.068130         0.215525         2.268660
 H         5.151293        -1.011611         1.671786
 H         5.726911         0.814444         0.165819
 H         4.339125         1.942203        -1.331917
 H         1.818339         1.780720        -1.158680
