19
Iteration:  2283charge 0 multiplicity 1
 C         0.021964         0.432849         0.421449
 C         1.492958        -0.015661        -0.032035
 C         2.046223        -0.901025         1.141785
 O         3.397071        -1.455794         1.117748
 C         4.419998        -0.432557         1.421563
 C         4.744835         0.546521         0.342738
 C         3.959987         1.032967        -0.642459
 C         2.489524         0.861169        -0.837121
 O         1.782742        -0.308350        -1.403628
 H         0.060129         0.527845         1.506379
 H        -0.247273         1.273390        -0.215686
 H        -0.745101        -0.385586         0.027329
 H         1.917519        -0.216255         2.048350
 H         1.413307        -1.812810         1.271238
 H         3.952702         0.258274         2.299909
 H         5.329222        -0.913001         1.742504
 H         5.787076         1.030099         0.447626
 H         4.517018         1.798191        -1.218502
 H         1.977451         1.837006        -1.092691
