19
Iteration:  2768charge 0 multiplicity 1
 C        -0.012960         0.327612         0.228867
 C         1.474254         0.095324         0.102420
 C         2.054461        -0.940697         1.031932
 O         3.378866        -1.406175         0.752973
 C         4.399097        -0.641009         1.334408
 C         4.809742         0.495627         0.478590
 C         3.880623         1.062019        -0.390374
 C         2.438149         0.954352        -0.578884
 O         1.889775        -0.127437        -1.291816
 H        -0.436296         0.978993        -0.548491
 H        -0.458672        -0.599356         0.396906
 H        -0.245411         0.823244         1.120848
 H         2.021147        -0.545876         2.019989
 H         1.418390        -1.871697         0.995379
 H         4.235536        -0.286315         2.313960
 H         5.315074        -1.335747         1.298126
 H         5.943909         0.778183         0.464502
 H         4.291987         1.878856        -0.950447
 H         2.040759         1.955623        -0.938600
