19
Iteration:  4263
 C        -0.003491         0.374905         0.344101
 C         1.464966         0.001219        -0.074651
 C         2.131691        -0.941416         1.060571
 O         3.383071        -1.542467         0.869873
 C         4.478535        -0.783581         1.308023
 C         4.695964         0.481936         0.543426
 C         3.864144         1.215726        -0.270085
 C         2.438989         1.036683        -0.710519
 O         1.856729        -0.052476        -1.477422
 H        -0.578439        -0.541901         0.658500
 H        -0.030366         1.088698         1.105302
 H        -0.546690         0.652534        -0.594180
 H         2.181519        -0.329909         1.961102
 H         1.394506        -1.827196         1.371521
 H         4.555279        -0.576215         2.489105
 H         5.417468        -1.307468         1.227769
 H         5.638833         0.978115         0.926402
 H         4.223684         2.149049        -0.657618
 H         2.001537         2.079514        -1.152507
