19
Iteration:  1494charge 0 multiplicity 1
 C         0.003442         0.230872         0.158038
 C         1.496990         0.064270        -0.001588
 C         2.086914        -0.546161         1.283213
 O         3.289468        -1.341266         1.083137
 C         4.487199        -0.690514         1.224007
 C         4.723003         0.503662         0.330355
 C         3.870079         1.063693        -0.486838
 C         2.423245         0.937212        -0.749402
 O         1.930650        -0.382714        -1.242889
 H        -0.392152         0.579163         1.112231
 H        -0.206966         0.965351        -0.669059
 H        -0.417278        -0.819053         0.016472
 H         2.278017         0.303021         1.999719
 H         1.332151        -1.186135         1.640187
 H         4.589699        -0.408798         2.272871
 H         5.208389        -1.655568         1.116517
 H         5.705314         0.937064         0.472097
 H         4.193018         1.866691        -1.062438
 H         2.040374         1.715869        -1.391476
