19
Iteration:  3077charge 0 multiplicity 1
 C         0.264991         0.630526         0.449846
 C         1.539557        -0.004980         0.023976
 C         2.094547        -1.172765         0.912851
 O         3.446891        -1.570108         0.894710
 C         4.349526        -0.667529         1.397578
 C         4.578385         0.599363         0.458530
 C         3.799078         1.241461        -0.401386
 C         2.383278         0.964989        -0.716927
 O         1.856620        -0.209856        -1.404992
 H        -0.017068         1.345562        -0.269470
 H        -0.622439        -0.001482         0.593787
 H         0.539216         1.182862         1.392275
 H         1.675293        -1.083074         1.920125
 H         1.681372        -2.092789         0.388952
 H         3.993342        -0.209347         2.421109
 H         5.245810        -1.300965         1.566157
 H         5.553719         0.996322         0.658969
 H         4.059301         2.254188        -0.754580
 H         1.869571         1.760973        -1.215559
