19
Iteration:  2242
 C         0.081294         0.337900         0.166776
 C         1.497513         0.044947         0.205855
 C         2.006482        -1.047063         1.165144
 O         3.399372        -1.278426         0.952583
 C         4.322217        -0.259600         1.438291
 C         4.731199         0.373114         0.228182
 C         3.934287         0.925785        -0.737602
 C         2.442506         0.959073        -0.584831
 O         1.962743        -0.245655        -1.188411
 H        -0.246882         0.756278         1.249548
 H        -0.252675         1.236146        -0.442082
 H        -0.617570        -0.407523        -0.036062
 H         1.778205        -0.868474         2.239066
 H         1.461524        -1.963058         0.867780
 H         3.864680         0.384467         2.134439
 H         5.092696        -0.807793         1.951177
 H         5.812282         0.246628        -0.046084
 H         4.225608         1.364095        -1.716428
 H         1.856913         1.911086        -0.964602
