19
Iteration:  3568charge 0 multiplicity 1
 C        -0.007485         0.369455         0.205739
 C         1.541172        -0.010649         0.037626
 C         1.972160        -1.057977         1.088630
 O         3.304744        -1.525548         0.930454
 C         4.459415        -0.644171         1.268205
 C         4.760888         0.500105         0.265649
 C         3.874073         1.234218        -0.450672
 C         2.448083         1.093603        -0.418749
 O         1.995539        -0.101850        -1.283005
 H        -0.479612         0.977370        -0.502530
 H        -0.716798        -0.568448         0.151446
 H        -0.175441         0.706119         1.229120
 H         1.880909        -0.625269         2.047110
 H         1.330585        -2.012571         1.015839
 H         4.331022        -0.141521         2.180429
 H         5.404025        -1.342575         1.404109
 H         5.834696         0.660647         0.171675
 H         4.258370         2.016660        -1.181307
 H         1.897545         2.028922        -0.792086
