19
Iteration:    42
 C         0.103523         0.534854         0.110030
 C         1.493446        -0.009343         0.161424
 C         1.959735        -0.934054         1.258520
 O         3.287099        -1.436843         1.243360
 C         4.491422        -0.645743         1.034011
 C         4.693888         0.617567         0.212977
 C         3.831211         1.250447        -0.545156
 C         2.427253         0.836297        -0.787191
 O         2.055790        -0.420458        -1.180836
 H        -0.048881         1.490534         0.769673
 H        -0.224124         0.782573        -0.796911
 H        -0.648394        -0.238138         0.556988
 H         1.733723        -0.379461         2.266217
 H         1.243146        -1.782907         1.356712
 H         4.776114        -0.276076         2.068634
 H         5.195789        -1.387693         0.818472
 H         5.624362         1.054887         0.562671
 H         4.041577         2.382705        -0.669223
 H         1.765607         1.730834        -1.222622
