19
Iteration:   335charge 0 multiplicity 1
 C         0.106249         0.452181         0.373925
 C         1.551279        -0.009301        -0.041812
 C         2.074520        -0.868089         1.177398
 O         3.346835        -1.487308         1.173327
 C         4.365083        -0.489424         1.346357
 C         4.661091         0.560276         0.306991
 C         3.819747         1.117560        -0.676431
 C         2.422223         0.981741        -0.773079
 O         1.947751        -0.407827        -1.318239
 H         0.368513         0.923048         1.418610
 H        -0.315929         1.122424        -0.263710
 H        -0.645397        -0.425572         0.497811
 H         2.152169        -0.233062         2.054772
 H         1.337578        -1.728817         1.276686
 H         4.132775         0.108014         2.210947
 H         5.213853        -1.014295         1.462387
 H         5.710683         0.622547         0.068137
 H         4.367421         1.739761        -1.468728
 H         1.907403         1.732688        -1.455873
