19
Iteration:  1710charge 0 multiplicity 1
 C         0.101696         0.655132         0.222362
 C         1.499894         0.000058         0.159154
 C         2.008179        -1.112100         1.123424
 O         3.417475        -1.508379         1.032522
 C         4.307666        -0.370904         1.343873
 C         4.762938         0.602512         0.288974
 C         3.904168         1.161505        -0.622019
 C         2.402552         0.858280        -0.669785
 O         1.921898        -0.460270        -1.256156
 H         0.291071         1.416817         0.896224
 H         0.023981         1.144817        -0.736930
 H        -0.730413         0.042773         0.687801
 H         1.944208        -0.819253         2.161869
 H         1.433667        -2.109145         1.013518
 H         3.709873         0.309773         2.034396
 H         5.113213        -0.767914         1.846473
 H         5.851496         0.754692         0.114472
 H         4.266151         1.768532        -1.370320
 H         1.770982         1.682278        -1.177335
