19
Iteration:  3817charge 0 multiplicity 1
 C        -0.036186         0.279799         0.108841
 C         1.476843         0.061133         0.141343
 C         2.028013        -0.943420         1.125877
 O         3.275508        -1.485317         0.890019
 C         4.454148        -0.670870         1.184254
 C         4.813206         0.460136         0.225082
 C         3.867770         1.263060        -0.342104
 C         2.385903         1.097314        -0.538446
 O         2.069788        -0.182211        -1.124678
 H        -0.371952         0.801735        -0.858518
 H        -0.572429        -0.620716         0.197434
 H        -0.415299         0.961172         0.860071
 H         1.965014        -0.579014         2.232844
 H         1.367200        -1.846448         1.094888
 H         4.469504        -0.307660         2.161126
 H         5.298458        -1.443251         1.152966
 H         5.802457         0.620404        -0.043613
 H         4.189438         2.083279        -1.025083
 H         1.816790         1.921281        -0.828372
