19
Iteration:  3419charge 0 multiplicity 1
 C        -0.005014         0.200259         0.114354
 C         1.461613         0.031339         0.140721
 C         2.083827        -0.833562         1.175611
 O         3.267500        -1.375716         0.735449
 C         4.465816        -0.718475         1.184106
 C         4.732158         0.411264         0.322973
 C         3.882041         1.152931        -0.349451
 C         2.384453         1.060109        -0.406053
 O         2.046816        -0.102657        -1.216674
 H        -0.644864         0.437099        -0.890327
 H        -0.396835        -0.723046         0.594054
 H        -0.361213         1.156139         0.747066
 H         2.088766        -0.357583         2.143245
 H         1.456211        -1.673530         1.289096
 H         4.368893        -0.395946         2.245141
 H         5.212228        -1.400622         1.044548
 H         5.774168         0.638193         0.266534
 H         4.402366         1.842115        -1.091452
 H         1.960147         1.964466        -0.796017
