19
Iteration:  4115charge 0 multiplicity 1
 C         0.227360         0.519378         0.431925
 C         1.577855        -0.052194        -0.029238
 C         2.071256        -1.083718         0.947201
 O         3.419252        -1.499556         0.878947
 C         4.368099        -0.637871         1.442230
 C         4.593892         0.556125         0.571582
 C         3.894181         1.116627        -0.442210
 C         2.449414         0.991185        -0.839006
 O         1.749879        -0.139409        -1.424995
 H        -0.202917         1.174764        -0.284377
 H        -0.521464        -0.335263         0.527104
 H         0.198900         0.979259         1.515757
 H         1.884497        -0.706164         1.987533
 H         1.572037        -2.024626         0.775623
 H         4.019384        -0.096856         2.431059
 H         5.365216        -1.196683         1.700664
 H         5.527058         1.064961         0.996619
 H         4.329541         2.004317        -0.827137
 H         1.881077         1.913564        -1.053024
