19
Iteration:   613
 C        -0.000724         0.261465         0.145368
 C         1.503447         0.098564         0.016373
 C         2.118685        -0.616977         1.222917
 O         3.337641        -1.391961         1.135629
 C         4.534045        -0.647900         1.280150
 C         4.671915         0.486482         0.376416
 C         3.855180         1.016491        -0.490776
 C         2.417666         0.932638        -0.761218
 O         1.869021        -0.317221        -1.319124
 H        -0.402762         0.352123         1.167508
 H        -0.439391         1.086569        -0.414135
 H        -0.484317        -0.615632        -0.272681
 H         2.394940         0.122284         1.998110
 H         1.396181        -1.426554         1.606833
 H         4.494930        -0.264901         2.318044
 H         5.343679        -1.262919         1.188810
 H         5.718223         0.814014         0.316768
 H         4.373434         1.721926        -1.197767
 H         2.037939         1.920342        -1.202168
