19
Iteration:  3049charge 0 multiplicity 1
 C         0.136175         0.378073         0.384745
 C         1.514828         0.023010         0.040121
 C         2.021721        -1.077706         0.997615
 O         3.358772        -1.538208         0.824374
 C         4.339134        -0.628354         1.331414
 C         4.732649         0.600920         0.516707
 C         3.940123         1.169940        -0.479307
 C         2.481443         1.026220        -0.606962
 O         1.834283        -0.108019        -1.340790
 H        -0.394947         0.706278        -0.565039
 H        -0.430846        -0.526052         0.686811
 H         0.055949         1.116492         1.169854
 H         1.824795        -0.637417         1.995074
 H         1.434982        -1.950019         0.781264
 H         4.007524        -0.265740         2.358048
 H         5.225063        -1.304276         1.413842
 H         5.844524         0.897667         0.471912
 H         4.304483         1.996512        -1.050728
 H         1.992498         1.875183        -1.175263
