19
Iteration:  2584charge 0 multiplicity 1
 C         0.059395         0.436996         0.224230
 C         1.604597        -0.029489         0.095832
 C         1.967677        -0.971792         1.126159
 O         3.360352        -1.602899         1.027629
 C         4.425805        -0.570639         1.298693
 C         4.687607         0.571544         0.309433
 C         3.874577         1.270293        -0.548290
 C         2.419644         0.969622        -0.635204
 O         1.936695        -0.227454        -1.276547
 H        -0.552237        -0.145405         1.053437
 H         0.084182         1.488175         0.372279
 H        -0.422608         0.235403        -0.804239
 H         1.867714        -0.577810         2.117925
 H         1.348987        -1.851227         1.046527
 H         4.236206        -0.120592         2.272667
 H         5.166849        -1.253407         1.500514
 H         5.726117         0.824421         0.035404
 H         4.308729         2.101921        -1.155389
 H         1.960033         1.932152        -0.863975
