19
Iteration:  2667
 C         0.170435         0.368467         0.400393
 C         1.539122         0.021912         0.064564
 C         2.072771        -1.099957         0.957387
 O         3.370292        -1.549086         0.992647
 C         4.307132        -0.558570         1.464858
 C         4.764047         0.572161         0.398254
 C         3.897851         1.126437        -0.588181
 C         2.434782         1.006556        -0.632880
 O         1.815251        -0.072292        -1.464574
 H        -0.038903         1.338074         0.830825
 H        -0.527019         0.480787        -0.515719
 H        -0.203178        -0.421174         1.096589
 H         1.853350        -0.702197         1.964639
 H         1.379704        -1.991400         0.881849
 H         4.008280         0.018406         2.399728
 H         5.263864        -1.211486         1.602371
 H         5.794423         0.853690         0.497537
 H         4.414078         1.955240        -1.120559
 H         1.799585         1.850789        -0.828476
