19
Iteration:  3342charge 0 multiplicity 1
 C         0.198162         0.433993         0.354018
 C         1.652217        -0.006950         0.003863
 C         2.021717        -0.994443         1.108126
 O         3.288641        -1.600052         0.880306
 C         4.346831        -0.761942         1.104670
 C         4.571771         0.644211         0.455109
 C         3.755808         1.322460        -0.305725
 C         2.389369         1.022647        -0.699908
 O         2.062203        -0.249675        -1.323813
 H        -0.475787         0.856821        -0.551234
 H        -0.371156        -0.269622         1.025932
 H         0.371302         1.343426         1.121410
 H         1.921424        -0.454346         2.050226
 H         1.342097        -1.811155         1.232248
 H         4.566020        -0.554867         2.284990
 H         5.227291        -1.321823         0.810153
 H         5.489605         1.163324         0.700816
 H         4.124859         2.290498        -0.801928
 H         1.906823         1.896210        -0.987750
