19
Iteration:  4615charge 0 multiplicity 1
 C        -0.053041         0.236940         0.077553
 C         1.531185         0.083475         0.195201
 C         1.943614        -1.012848         1.169351
 O         3.316768        -1.601602         0.860375
 C         4.313373        -0.563042         1.222712
 C         4.831681         0.393282         0.152490
 C         3.970809         1.261400        -0.365291
 C         2.479265         1.107268        -0.454716
 O         2.026314        -0.048343        -1.190789
 H        -0.264331        -0.207415        -0.901474
 H        -0.569622        -0.493702         0.816419
 H        -0.296922         1.290959         0.113710
 H         1.964076        -0.459248         2.160283
 H         1.260680        -1.914225         1.140065
 H         3.958679         0.034162         2.019714
 H         5.228339        -0.996586         1.719210
 H         5.844310         0.446253         0.109919
 H         4.267677         2.055027        -1.084789
 H         1.867481         2.041151        -0.731054
