19
Iteration:  4285charge 0 multiplicity 1
 C         0.149984         0.427219         0.302967
 C         1.567244         0.080007         0.011734
 C         2.132822        -0.897984         1.016801
 O         3.338470        -1.518163         0.733829
 C         4.490666        -0.818073         1.228171
 C         4.597552         0.603656         0.746749
 C         3.829372         1.173603        -0.257086
 C         2.430277         0.970753        -0.688406
 O         1.796365        -0.200930        -1.447245
 H        -0.334055        -0.297819         0.986811
 H         0.140642         1.364036         0.765637
 H        -0.472303         0.386481        -0.630259
 H         2.271625        -0.351967         1.960033
 H         1.323560        -1.744313         1.240283
 H         4.417111        -0.713697         2.394122
 H         5.414404        -1.315326         1.144035
 H         5.589353         1.098847         0.927093
 H         4.149028         2.109692        -0.649222
 H         1.909409         1.968314        -1.030023
