19
Iteration:  4504
 C         0.174837         0.522473         0.499096
 C         1.528620         0.048009        -0.015259
 C         2.084171        -1.120074         0.849284
 O         3.383922        -1.465978         0.676272
 C         4.323096        -0.641496         1.411778
 C         4.610208         0.609844         0.686284
 C         3.906981         1.135996        -0.354465
 C         2.426586         0.957887        -0.683602
 O         1.883101        -0.223973        -1.441214
 H        -0.283016        -0.218201         1.199085
 H         0.182553         1.378429         1.170443
 H        -0.598838         0.872859        -0.248596
 H         1.853192        -0.776517         1.869973
 H         1.348686        -1.937978         0.870072
 H         4.036095        -0.511567         2.521782
 H         5.290447        -1.250199         1.464801
 H         5.635051         1.039264         0.890202
 H         4.453971         1.848518        -1.069778
 H         2.101290         1.913371        -1.125116
