19
Iteration:   452charge 0 multiplicity 1
 C         0.175656         0.482301         0.344152
 C         1.630236         0.044259        -0.009429
 C         2.089074        -0.877478         1.184180
 O         3.348096        -1.543587         1.285569
 C         4.367554        -0.538197         1.340276
 C         4.576164         0.579362         0.308773
 C         3.855681         1.168625        -0.647095
 C         2.402219         0.907377        -0.931516
 O         1.861555        -0.401081        -1.358979
 H         0.275364         0.916785         1.373676
 H        -0.340197         1.074318        -0.424650
 H        -0.328596        -0.494755         0.486550
 H         2.026935        -0.059733         2.014621
 H         1.387132        -1.676753         1.213703
 H         4.309005         0.015330         2.268475
 H         5.337151        -1.210763         1.317810
 H         5.586729         0.900969         0.423829
 H         4.344099         2.159120        -1.167985
 H         1.831038         1.754638        -1.362269
