19
Iteration:  4846charge 0 multiplicity 1
 C        -0.085322         0.437625         0.204572
 C         1.498830         0.002690         0.110195
 C         2.024242        -1.150133         0.976720
 O         3.384681        -1.559296         0.734812
 C         4.370397        -0.634291         1.319365
 C         4.787190         0.521885         0.414823
 C         3.931462         1.258706        -0.307399
 C         2.409253         1.089406        -0.467846
 O         2.037675        -0.090121        -1.265878
 H        -0.224659         1.306826         0.874173
 H        -0.543562         0.731960        -0.816182
 H        -0.784478        -0.356545         0.546646
 H         1.870079        -0.949555         2.147437
 H         1.508742        -1.976691         0.570142
 H         3.983923        -0.277403         2.292344
 H         5.079899        -1.490623         1.364559
 H         5.912865         0.602129         0.282108
 H         4.403696         2.016644        -0.993517
 H         1.758713         1.949949        -0.736989
