19
Iteration:  1945charge 0 multiplicity 1
 C         0.112189         0.534819         0.187567
 C         1.530375         0.005718         0.038745
 C         2.068174        -0.729200         1.292721
 O         3.291684        -1.467181         1.056657
 C         4.509747        -0.623822         1.148590
 C         4.595741         0.591719         0.393307
 C         3.792101         1.255444        -0.456832
 C         2.406732         0.806429        -0.869807
 O         2.001609        -0.556138        -1.221518
 H        -0.235413         1.203793         1.106930
 H        -0.115151         1.116297        -0.703824
 H        -0.528332        -0.264606         0.263256
 H         2.212313         0.039588         2.126331
 H         1.271446        -1.428940         1.531283
 H         4.588376        -0.421273         2.262732
 H         5.358784        -1.310582         0.878707
 H         5.519836         1.004247         0.704686
 H         4.129824         2.231610        -0.840829
 H         1.870744         1.565467        -1.461092
