19
Iteration:  1891
 C        -0.029165         0.384908         0.242376
 C         1.484768         0.047335        -0.003632
 C         2.144861        -0.713290         1.194086
 O         3.322379        -1.359158         0.999646
 C         4.464064        -0.632741         1.317168
 C         4.688016         0.595826         0.442911
 C         3.841505         1.032762        -0.574496
 C         2.435780         0.857972        -0.788634
 O         1.936915        -0.406896        -1.283726
 H        -0.042336         1.423064         0.826526
 H        -0.712112         0.584555        -0.598130
 H        -0.419719        -0.353154         0.881124
 H         2.315632        -0.046816         2.062326
 H         1.506047        -1.481819         1.513265
 H         4.399211        -0.392019         2.480786
 H         5.410402        -1.284423         1.412521
 H         5.692068         0.921923         0.561391
 H         4.260681         1.851216        -1.170021
 H         2.026219         1.626897        -1.347048
