19
Iteration:  4671
 C         0.070413         0.461817         0.329920
 C         1.482744         0.008822        -0.075183
 C         2.083188        -0.982217         1.021657
 O         3.386058        -1.523728         0.903347
 C         4.444020        -0.727023         1.267448
 C         4.700930         0.552586         0.611655
 C         3.886731         1.190388        -0.350990
 C         2.385124         0.978822        -0.697792
 O         1.888990        -0.143831        -1.431903
 H        -0.642160        -0.046378        -0.332204
 H        -0.127241         0.064221         1.438871
 H        -0.092735         1.532155         0.369899
 H         1.890977        -0.428695         1.974996
 H         1.364424        -1.865292         1.177178
 H         4.568420        -0.747619         2.378978
 H         5.295245        -1.383622         0.951285
 H         5.577219         1.056411         0.988858
 H         4.135202         2.232102        -0.557489
 H         1.938781         1.940104        -1.186970
