19
Iteration:  2824charge 0 multiplicity 1
 C         0.132408         0.274814         0.203293
 C         1.635288        -0.001952         0.040466
 C         1.970707        -0.970152         1.172831
 O         3.270152        -1.552697         1.097684
 C         4.393220        -0.781709         1.070931
 C         4.591158         0.433760         0.272274
 C         3.812886         1.417678        -0.335018
 C         2.361817         1.120186        -0.530016
 O         2.106162        -0.096608        -1.334149
 H        -0.230208         0.425473        -0.777909
 H        -0.466111        -0.466386         0.584400
 H         0.056424         1.151735         0.730977
 H         1.866676        -0.394070         2.043231
 H         1.262552        -1.827481         1.229827
 H         4.681562        -0.371295         1.970022
 H         5.263902        -1.492416         0.830285
 H         5.711735         0.681041         0.261233
 H         4.270899         2.264252        -0.828963
 H         1.738226         1.980407        -0.950489
