19
Iteration:  4756
 C         0.066138         0.349066         0.198706
 C         1.523774        -0.022594        -0.020620
 C         1.980281        -0.979932         1.027099
 O         3.317971        -1.520957         0.818035
 C         4.489836        -0.750919         1.286921
 C         4.771790         0.504564         0.472845
 C         3.884607         1.297792        -0.203838
 C         2.469116         1.062915        -0.550287
 O         1.843527        -0.102576        -1.347779
 H        -0.432127        -0.288554         0.943570
 H        -0.232497         1.314907         0.617481
 H        -0.357287         0.232960        -0.777828
 H         1.890247        -0.393116         1.961581
 H         1.347973        -1.788838         0.921925
 H         4.332894        -0.456209         2.334724
 H         5.417631        -1.382656         1.247283
 H         5.776241         0.715229         0.464181
 H         4.373987         2.092472        -0.764023
 H         2.015899         1.874091        -0.967249
