19
Iteration:   969
 C         0.034369         0.346591         0.231461
 C         1.515525         0.001240        -0.024937
 C         2.159550        -0.613856         1.246142
 O         3.271215        -1.403976         1.025449
 C         4.497132        -0.657731         1.343567
 C         4.684772         0.587384         0.425793
 C         3.846428         1.064389        -0.469646
 C         2.380825         0.892692        -0.866399
 O         1.911241        -0.426041        -1.342005
 H         0.076122         1.178251         0.965268
 H        -0.589609         0.642293        -0.638072
 H        -0.404747        -0.526264         0.755743
 H         2.423474         0.279644         1.887086
 H         1.355805        -1.221186         1.682897
 H         4.452540        -0.386932         2.384528
 H         5.308388        -1.369829         1.189947
 H         5.616919         0.986443         0.661916
 H         4.334301         1.943430        -0.946035
 H         2.024793         1.767673        -1.474748
