19
Iteration:  4175charge 0 multiplicity 1
 C         0.032362         0.329209         0.188170
 C         1.521357         0.012508         0.063456
 C         2.003305        -1.062149         1.131065
 O         3.340492        -1.433117         0.807117
 C         4.345803        -0.543764         1.327358
 C         4.765285         0.392894         0.248907
 C         3.936416         1.225946        -0.382463
 C         2.427043         1.025355        -0.457308
 O         2.002448        -0.101230        -1.248181
 H        -0.477060         0.059498        -0.805085
 H        -0.468913        -0.282331         0.922514
 H        -0.123174         1.367174         0.417469
 H         1.757602        -0.825368         2.137794
 H         1.331759        -2.006888         0.893644
 H         3.984487        -0.015295         2.218103
 H         5.088516        -1.222606         1.672675
 H         5.816168         0.265220        -0.019889
 H         4.303205         2.025432        -1.073782
 H         1.875007         2.103721        -0.697416
