19
Iteration:  3995charge 0 multiplicity 1
 C         0.081852         0.160015         0.211131
 C         1.560841         0.033838        -0.011800
 C         2.037632        -0.990553         1.105523
 O         3.336132        -1.530473         1.170045
 C         4.426763        -0.695401         1.285124
 C         4.752006         0.375713         0.232931
 C         3.874489         1.176222        -0.367980
 C         2.399352         1.164260        -0.438299
 O         1.872526         0.133776        -1.558168
 H        -0.459980         0.647925        -0.542849
 H        -0.377260        -0.771194         0.301289
 H        -0.069110         0.581972         1.222429
 H         1.841896        -0.339371         1.928896
 H         1.364189        -1.912001         1.024989
 H         4.367271        -0.176116         2.360811
 H         5.300061        -1.440637         1.370015
 H         5.909189         0.464965         0.135395
 H         4.312632         1.957662        -0.973222
 H         1.822365         2.128176        -0.780024
