19
Iteration:  2961
 C         0.134132         0.388795         0.190764
 C         1.595564        -0.012619         0.050723
 C         1.985251        -0.938672         1.201564
 O         3.277310        -1.610255         1.013643
 C         4.459982        -0.743695         1.098013
 C         4.641021         0.571541         0.337891
 C         3.845751         1.358657        -0.390140
 C         2.337187         1.098167        -0.573733
 O         2.034124        -0.223796        -1.290947
 H        -0.220710         1.307782        -0.446032
 H        -0.497305        -0.459734        -0.278760
 H        -0.192333         0.588871         1.271069
 H         1.982283        -0.513033         2.192573
 H         1.250752        -1.707151         1.166175
 H         4.609123        -0.484409         2.244086
 H         5.311162        -1.411493         0.762395
 H         5.728494         0.788754         0.575880
 H         4.269604         2.141104        -0.927046
 H         1.736091         1.897786        -1.061620
