19
Iteration:   716charge 0 multiplicity 1
 C         0.177427         0.386504         0.307660
 C         1.550833        -0.043817        -0.066576
 C         2.060904        -0.724859         1.188899
 O         3.343547        -1.425089         1.177880
 C         4.515289        -0.624540         1.403492
 C         4.675037         0.550254         0.467638
 C         3.822745         1.063254        -0.557063
 C         2.376103         0.896311        -0.856086
 O         1.822638        -0.299153        -1.492797
 H        -0.014452         1.309035         0.913116
 H        -0.504006         0.397297        -0.639679
 H        -0.352736        -0.373252         0.970271
 H         2.114542         0.083282         2.042528
 H         1.270414        -1.459372         1.483838
 H         4.469796        -0.261345         2.407350
 H         5.431009        -1.268621         1.320041
 H         5.671437         1.019336         0.422717
 H         4.164749         1.772520        -1.217972
 H         1.893668         1.796989        -1.283323
