19
Iteration:  1546
 C         0.047018         0.366536         0.127922
 C         1.518262         0.017726         0.008839
 C         2.121700        -0.595086         1.291908
 O         3.250610        -1.391397         1.103124
 C         4.528746        -0.708717         1.171072
 C         4.635871         0.560474         0.384250
 C         3.833278         1.162984        -0.572874
 C         2.389434         0.868686        -0.766402
 O         2.006041        -0.466251        -1.203643
 H        -0.286909         0.409926         1.179923
 H        -0.317807         1.285900        -0.291118
 H        -0.577815        -0.554030        -0.241244
 H         2.347237         0.263971         1.931844
 H         1.260407        -1.083043         1.811372
 H         4.595695        -0.457504         2.281042
 H         5.153936        -1.526637         0.816249
 H         5.580688         1.022554         0.642492
 H         4.307374         2.123082        -0.904831
 H         1.885214         1.629491        -1.311462
