19
Iteration:  4408charge 0 multiplicity 1
 C         0.038601         0.030071         0.173095
 C         1.525677         0.073736         0.038220
 C         2.019490        -0.888055         1.006601
 O         3.265876        -1.513580         0.880089
 C         4.467562        -0.759601         1.320814
 C         4.810871         0.302028         0.385137
 C         3.954568         1.197931        -0.249817
 C         2.423161         1.192066        -0.484816
 O         1.843246         0.148249        -1.421655
 H        -0.341861        -0.596148         0.891920
 H        -0.264672         0.958604         0.634328
 H        -0.450373        -0.011985        -0.765254
 H         1.883479        -0.331958         1.972130
 H         1.280498        -1.749031         1.346188
 H         4.527673        -0.335840         2.288632
 H         5.255044        -1.396382         1.347981
 H         5.875232         0.714450         0.268109
 H         4.535001         2.016968        -0.804674
 H         2.016237         2.279458        -0.752739
