19
Iteration:  3774
 C         0.009933         0.177718         0.168903
 C         1.488965         0.047406         0.142230
 C         2.035193        -0.880617         1.125901
 O         3.314571        -1.445311         0.847618
 C         4.444169        -0.671326         1.240402
 C         4.837239         0.453424         0.326170
 C         3.948696         1.161746        -0.405360
 C         2.343138         1.084652        -0.457255
 O         1.934180        -0.077286        -1.277201
 H        -0.291076         0.947881        -0.672983
 H        -0.553433        -0.803014        -0.059800
 H        -0.418396         0.672367         1.063616
 H         2.064256        -0.332265         2.095658
 H         1.324797        -1.737344         1.295505
 H         4.144402        -0.273920         2.208426
 H         5.293287        -1.396165         1.308180
 H         5.845352         0.570750         0.114695
 H         4.323245         1.736267        -1.285818
 H         1.947476         1.980857        -0.843545
