19
Iteration:  3862
 C         0.162298         0.424989         0.334455
 C         1.539591         0.019760        -0.008603
 C         2.096950        -0.879075         1.127844
 O         3.313023        -1.620575         0.915405
 C         4.460990        -0.759028         1.182348
 C         4.592222         0.642704         0.568760
 C         3.794173         1.268297        -0.359625
 C         2.447930         0.954976        -0.795311
 O         1.898585        -0.240763        -1.379916
 H        -0.245483         1.203804        -0.319723
 H        -0.452115        -0.464255         0.337118
 H         0.127652         0.909813         1.318836
 H         2.228468        -0.171346         2.027753
 H         1.309445        -1.668705         1.448015
 H         4.604272        -0.645048         2.221275
 H         5.397083        -1.321179         0.945884
 H         5.443834         1.212118         0.830063
 H         4.024477         2.351040        -0.602954
 H         1.988898         1.765841        -1.342089
