19
Iteration:  4017charge 0 multiplicity 1
 C         0.031084         0.255282         0.255955
 C         1.484348        -0.001573        -0.003704
 C         2.084533        -0.981435         1.024416
 O         3.376089        -1.518159         0.984895
 C         4.443431        -0.625875         1.413240
 C         4.721266         0.382187         0.322692
 C         3.862780         1.079431        -0.443990
 C         2.401408         1.089626        -0.532616
 O         1.921838         0.117952        -1.403799
 H        -0.419533         0.945916        -0.391895
 H        -0.551350        -0.609193         0.057290
 H        -0.192665         0.432868         1.330533
 H         1.989703        -0.382572         1.921261
 H         1.464415        -1.935536         1.092301
 H         4.149516        -0.162223         2.384541
 H         5.361955        -1.279061         1.562938
 H         5.839124         0.692408         0.231448
 H         4.340155         1.647052        -1.228129
 H         1.853208         2.162616        -0.654713
