19
Iteration:  3852
 C         0.118720         0.435995         0.311686
 C         1.616626        -0.051289         0.016207
 C         2.132096        -0.906934         1.161352
 O         3.297521        -1.565858         0.932852
 C         4.391868        -0.752452         1.178316
 C         4.607834         0.607483         0.445335
 C         3.811444         1.308004        -0.359274
 C         2.386772         0.973369        -0.759082
 O         1.973124        -0.225827        -1.363922
 H        -0.218495         1.060945        -0.522590
 H        -0.662272        -0.496210         0.382732
 H         0.137548         0.861472         1.337490
 H         2.184666        -0.166172         2.073073
 H         1.251187        -1.688340         1.344866
 H         4.394071        -0.613868         2.221176
 H         5.221221        -1.421563         0.881367
 H         5.517115         0.981088         0.862879
 H         4.193592         2.352010        -0.543263
 H         1.813905         1.893555        -1.045073
