19
Iteration:  1251
 C         0.005399         0.216083         0.382775
 C         1.510612         0.049717        -0.033870
 C         1.994153        -0.748586         1.108802
 O         3.337003        -1.338460         1.034575
 C         4.345706        -0.448355         1.450467
 C         4.779505         0.511356         0.342779
 C         4.004618         0.853639        -0.626870
 C         2.526701         0.903282        -0.716163
 O         1.849592        -0.208536        -1.376135
 H        -0.089582         0.754923         1.334405
 H        -0.728434         0.630601        -0.354540
 H        -0.374666        -0.887246         0.428701
 H         2.083592         0.069026         1.830189
 H         1.368267        -1.580780         1.270118
 H         4.098203         0.065741         2.437685
 H         5.129933        -1.148786         1.895990
 H         5.852106         0.856465         0.185532
 H         4.332847         1.450622        -1.521653
 H         2.286936         1.969537        -0.902425
