19
Iteration:   174
 C         0.115590         0.443376        -0.008867
 C         1.566262         0.041189         0.091396
 C         2.121968        -0.686926         1.361994
 O         3.302563        -1.537912         1.316212
 C         4.442286        -0.713137         1.017348
 C         4.625340         0.502407         0.210191
 C         3.714127         1.383155        -0.419364
 C         2.420985         0.921039        -0.779963
 O         1.969955        -0.503588        -1.172832
 H        -0.346919         0.695381         1.019250
 H        -0.008379         1.322327        -0.689598
 H        -0.591173        -0.311096        -0.515689
 H         2.394729         0.067514         2.099263
 H         1.345948        -1.320790         1.754292
 H         4.799149        -0.274909         1.941152
 H         5.255638        -1.539562         0.676329
 H         5.595821         0.895569         0.184746
 H         4.083112         2.092129        -1.065399
 H         1.975567         1.801861        -1.312287
