19
Iteration:  2221charge 0 multiplicity 1
 C         0.032766         0.419069         0.246469
 C         1.522070        -0.046287         0.089214
 C         2.020781        -1.052644         1.120684
 O         3.392691        -1.425001         1.107377
 C         4.261768        -0.249986         1.345402
 C         4.837287         0.389370         0.117893
 C         3.909693         1.055103        -0.642117
 C         2.462615         0.979890        -0.538193
 O         1.963173        -0.285667        -1.214430
 H        -0.485397         1.053321         1.052184
 H        -0.176442         1.079224        -0.644474
 H        -0.539731        -0.403755         0.108668
 H         1.763797        -0.601342         2.055653
 H         1.443125        -1.975790         1.059851
 H         3.670690         0.461300         1.783111
 H         4.992474        -0.559642         2.114149
 H         5.899835         0.354456        -0.247831
 H         4.125647         1.507246        -1.635844
 H         2.004837         1.987745        -0.755200
