19
Iteration:  3386
 C        -0.102747         0.230114         0.091711
 C         1.410587         0.086992         0.100246
 C         2.092614        -0.881386         1.160376
 O         3.305931        -1.494607         0.844352
 C         4.559843        -0.724035         1.144369
 C         4.852230         0.431538         0.331521
 C         3.950169         1.178552        -0.298810
 C         2.370482         1.041200        -0.527930
 O         1.896415        -0.059676        -1.217522
 H        -0.435446         0.116591        -1.057367
 H        -0.559350        -0.570809         0.715261
 H        -0.394920         1.219930         0.674541
 H         2.130291        -0.380356         2.107805
 H         1.437135        -1.704699         1.276462
 H         4.472760        -0.296085         2.260655
 H         5.364326        -1.403993         1.199940
 H         5.817275         0.889009         0.435314
 H         4.317699         2.195093        -0.670794
 H         1.958779         1.923164        -0.950960
