19
Iteration:  4360
 C         0.047145         0.382759         0.142112
 C         1.536453         0.006240         0.035257
 C         2.059807        -1.025211         1.105316
 O         3.299991        -1.549095         0.840654
 C         4.441753        -0.818332         1.178102
 C         4.693798         0.503354         0.410825
 C         3.839757         1.291599        -0.240908
 C         2.365202         1.119834        -0.509339
 O         2.022594        -0.058180        -1.300681
 H        -0.499227        -0.250035         0.916953
 H        -0.234707         1.394966         0.402895
 H        -0.301813         0.134482        -0.904769
 H         1.943510        -0.649971         2.155015
 H         1.398882        -1.912027         1.240634
 H         4.527184        -0.627377         2.250760
 H         5.363331        -1.431656         1.015199
 H         5.689302         0.879748         0.431415
 H         4.253527         2.158210        -0.707285
 H         1.838579         1.973633        -0.859770
