19
Iteration:   181
 C         0.155913         0.437499         0.002329
 C         1.603900         0.012876         0.097567
 C         2.124092        -0.694387         1.390001
 O         3.296320        -1.461433         1.277026
 C         4.431936        -0.746530         1.014881
 C         4.565509         0.507531         0.229346
 C         3.762825         1.350235        -0.441713
 C         2.387931         0.958066        -0.765066
 O         1.944413        -0.501791        -1.215832
 H        -0.212089         0.741849         1.025275
 H         0.111586         1.254737        -0.625256
 H        -0.362396        -0.477253        -0.364852
 H         2.128232         0.011142         2.265902
 H         1.290482        -1.368017         1.776301
 H         4.810644        -0.330651         2.017558
 H         5.285963        -1.425932         0.766942
 H         5.656567         0.813295         0.336868
 H         4.318247         2.119597        -1.104492
 H         1.676374         1.631381        -1.348340
