19
Iteration:  1669
 C         0.064312         0.340776         0.390541
 C         1.585233         0.069805         0.050927
 C         2.048889        -0.829287         1.187980
 O         3.305149        -1.420064         1.050580
 C         4.404450        -0.469245         1.405462
 C         4.737791         0.515997         0.353180
 C         3.919777         1.084272        -0.565036
 C         2.447378         0.913182        -0.846450
 O         1.859194        -0.331835        -1.420540
 H        -0.150037         1.343453         0.790950
 H        -0.473121         0.241283        -0.625433
 H        -0.438771        -0.451924         1.093888
 H         1.759416        -0.395032         2.200209
 H         1.315408        -1.668810         1.119986
 H         4.107576        -0.009612         2.340285
 H         5.267117        -1.175582         1.480326
 H         5.866263         0.718442         0.378686
 H         4.480333         1.639023        -1.229909
 H         2.088038         1.755164        -1.312633
