19
Iteration:  1719
 C         0.143016         0.693703         0.226386
 C         1.509628        -0.042358         0.123985
 C         2.010683        -1.109680         1.151411
 O         3.476993        -1.457227         1.000923
 C         4.247187        -0.400575         1.419317
 C         4.800723         0.610883         0.204430
 C         3.878377         1.170155        -0.581204
 C         2.441943         0.747894        -0.713766
 O         1.861879        -0.406481        -1.225961
 H         0.107134         1.364210         1.090416
 H        -0.157093         1.126206        -0.698334
 H        -0.643861        -0.068698         0.290829
 H         1.812751        -0.827503         2.185120
 H         1.446533        -2.073109         1.019576
 H         3.613733         0.322290         2.080515
 H         5.041912        -0.888830         1.992650
 H         5.837605         0.679196         0.170669
 H         4.225522         1.874839        -1.382262
 H         1.868127         1.732083        -1.072943
