19
Iteration:  3687
 C         0.060618         0.646805         0.333150
 C         1.530509         0.068591         0.130527
 C         2.082029        -1.106115         0.993327
 O         3.418979        -1.432744         0.637757
 C         4.430697        -0.661575         1.316065
 C         4.655824         0.707886         0.587766
 C         3.822272         1.093351        -0.382402
 C         2.400418         0.844907        -0.624931
 O         1.904248        -0.320202        -1.301404
 H        -0.031739         1.524041        -0.229638
 H        -0.801736         0.015832        -0.043588
 H         0.061843         0.653464         1.409817
 H         2.058050        -0.783720         2.034676
 H         1.544252        -2.096059         0.858815
 H         4.032603        -0.529200         2.414777
 H         5.321112        -1.175019         1.249006
 H         5.602332         1.144663         0.720846
 H         4.281295         1.990419        -0.888727
 H         1.918831         1.645770        -1.118968
