19
Iteration:   745charge 0 multiplicity 1
 C        -0.013145         0.375920         0.402589
 C         1.511176         0.053443        -0.010253
 C         2.037393        -0.775062         1.119640
 O         3.331726        -1.370052         0.978352
 C         4.397527        -0.540954         1.395221
 C         4.728068         0.545834         0.375853
 C         3.960030         1.059342        -0.561364
 C         2.498958         0.861161        -0.823301
 O         1.918181        -0.401186        -1.310395
 H        -0.180013         1.231932         1.070052
 H        -0.600025         0.441876        -0.447624
 H        -0.361140        -0.549267         0.852989
 H         1.970987        -0.175910         1.984030
 H         1.173920        -1.481663         1.290602
 H         4.085610        -0.045714         2.409424
 H         5.265767        -1.099092         1.666751
 H         5.757509         0.891568         0.481307
 H         4.393560         1.913019        -1.329071
 H         2.004355         1.722602        -1.411877
