19
Iteration:   213
 C        -0.060913         0.281741         0.259115
 C         1.463757         0.107402         0.020692
 C         2.041192        -0.642599         1.252409
 O         3.241080        -1.388055         1.094893
 C         4.497658        -0.688742         1.125018
 C         4.766230         0.556308         0.353062
 C         3.883463         1.123009        -0.527761
 C         2.420548         0.877075        -0.787783
 O         2.044852        -0.379620        -1.209526
 H        -0.182300         0.893156         1.175526
 H        -0.610124         0.841114        -0.502403
 H        -0.564424        -0.692112         0.429416
 H         2.191778         0.185697         2.036950
 H         1.340607        -1.492650         1.536318
 H         4.582141        -0.401998         2.256044
 H         5.227479        -1.405047         0.888204
 H         5.810968         0.984751         0.504255
 H         4.441569         1.799122        -1.300927
 H         1.988783         1.669524        -1.481349
