19
Iteration:  2287
 C         0.034766         0.439321         0.429225
 C         1.522436        -0.054539        -0.046522
 C         2.042814        -0.908174         1.142843
 O         3.399829        -1.444851         1.123842
 C         4.416378        -0.444406         1.437059
 C         4.722325         0.559246         0.327358
 C         3.961750         1.029920        -0.615440
 C         2.481731         0.877744        -0.859694
 O         1.799923        -0.305451        -1.418380
 H        -0.044809         0.612074         1.603603
 H        -0.278087         1.357177        -0.174465
 H        -0.662451        -0.257984         0.158988
 H         1.929364        -0.190049         2.004389
 H         1.372604        -1.764311         1.336906
 H         4.045875         0.118599         2.321778
 H         5.289660        -1.054307         1.754991
 H         5.629709         1.088547         0.384041
 H         4.421213         1.819679        -1.212212
 H         1.862487         1.747710        -1.211125
