19
Iteration:   435charge 0 multiplicity 1
 C         0.293143         0.407968         0.298741
 C         1.681147         0.016120         0.087727
 C         2.089177        -0.846958         1.235137
 O         3.296394        -1.515230         1.175058
 C         4.298786        -0.481107         1.308751
 C         4.587239         0.501165         0.241966
 C         3.811898         1.233180        -0.639918
 C         2.437666         0.910150        -0.843757
 O         1.864916        -0.404376        -1.299969
 H         0.109936         0.835148         1.298988
 H         0.149447         1.151375        -0.506202
 H        -0.471212        -0.378405         0.115984
 H         2.022601        -0.307909         2.141004
 H         1.261978        -1.618546         1.365690
 H         3.925202         0.121959         2.203079
 H         5.201487        -0.879959         1.541949
 H         5.666349         0.802244         0.283015
 H         4.276996         1.890165        -1.330049
 H         1.832146         1.671851        -1.335524
