19
Iteration:  1732charge 0 multiplicity 1
 C         0.165602         0.594642         0.265335
 C         1.555286        -0.045076         0.111887
 C         2.059321        -1.079776         1.119197
 O         3.382890        -1.383545         0.956990
 C         4.296412        -0.293199         1.431326
 C         4.749234         0.477220         0.281736
 C         3.909304         1.063264        -0.608330
 C         2.490491         0.817610        -0.695534
 O         1.783333        -0.400043        -1.248553
 H        -0.028457         1.092493         1.150417
 H         0.168837         1.347297        -0.526893
 H        -0.630304        -0.213933         0.227706
 H         1.821473        -0.720495         2.113614
 H         1.518289        -2.079996         0.889642
 H         3.718832         0.303229         2.224852
 H         5.143182        -0.688570         1.905775
 H         5.742683         0.986651         0.270032
 H         4.193385         1.837838        -1.228913
 H         1.932107         1.717107        -1.188393
