19
Iteration:  3303
 C         0.145172         0.589955         0.357985
 C         1.514785         0.000577         0.001193
 C         2.122983        -0.978406         1.047154
 O         3.386902        -1.475944         0.689754
 C         4.485631        -0.687888         1.258643
 C         4.618623         0.652471         0.596857
 C         3.773299         1.179316        -0.272355
 C         2.426567         0.942019        -0.735772
 O         1.845975        -0.357271        -1.265549
 H        -0.166961         1.331845        -0.300692
 H        -0.502667        -0.234256         0.178339
 H         0.027712         0.955421         1.303117
 H         2.033971        -0.642287         2.106511
 H         1.401532        -1.867783         0.924040
 H         4.323125        -0.780108         2.350682
 H         5.422408        -1.300056         1.009535
 H         5.538196         1.199633         0.837872
 H         4.203830         2.081401        -0.722295
 H         1.892311         1.678917        -1.485402
