19
Iteration:   368charge 0 multiplicity 1
 C         0.052026         0.303513         0.191154
 C         1.505928         0.060218         0.150367
 C         2.092099        -0.869798         1.244227
 O         3.383488        -1.192393         0.941221
 C         4.445670        -0.436793         1.388092
 C         4.799338         0.440061         0.274313
 C         3.971688         0.869315        -0.594914
 C         2.461801         0.839825        -0.704278
 O         1.696986        -0.265727        -1.263972
 H        -0.409859         0.899765         1.066827
 H        -0.230040         0.876058        -0.613122
 H        -0.608196        -0.637612         0.157362
 H         1.918893        -0.447321         2.193095
 H         1.458648        -1.797149         1.310859
 H         4.232061         0.232640         2.221832
 H         5.146606        -1.076932         1.754460
 H         5.805669         0.821507         0.255674
 H         4.331069         1.678586        -1.326549
 H         2.070156         1.778374        -1.204054
