19
Iteration:  3355
 C         0.163430         0.357899         0.305604
 C         1.526738         0.010192         0.035861
 C         2.046265        -0.959861         1.102717
 O         3.261868        -1.567825         0.901367
 C         4.479032        -0.729783         1.141115
 C         4.616804         0.554620         0.459180
 C         3.792832         1.334030        -0.321696
 C         2.360445         1.074859        -0.663649
 O         2.040144        -0.187599        -1.295899
 H        -0.489330         0.480374        -0.699930
 H        -0.336724        -0.404698         0.872497
 H         0.181515         1.372451         0.831961
 H         2.070925        -0.476423         2.109383
 H         1.255572        -1.758192         1.003788
 H         4.555919        -0.641900         2.298037
 H         5.307458        -1.438763         0.774629
 H         5.635053         0.724286         0.423078
 H         4.324091         2.212700        -0.849277
 H         1.781249         1.786462        -1.121167
