19
Iteration:  2201charge 0 multiplicity 1
 C         0.140130         0.370659         0.243170
 C         1.576915        -0.060753         0.063200
 C         2.020819        -1.042877         1.189374
 O         3.379028        -1.450722         1.218649
 C         4.219364        -0.332032         1.378549
 C         4.776999         0.406064         0.109117
 C         3.936882         1.144058        -0.676009
 C         2.429211         0.940247        -0.666473
 O         1.857091        -0.219351        -1.318386
 H         0.143409         1.079350         1.098316
 H        -0.192115         1.048049        -0.559554
 H        -0.428633        -0.445059         0.510035
 H         1.709115        -0.665312         2.153622
 H         1.476870        -1.960248         1.001758
 H         3.770190         0.367400         2.123793
 H         5.210298        -0.667276         1.888824
 H         5.850907         0.564657         0.047424
 H         4.385498         1.888710        -1.331748
 H         2.038473         1.872100        -0.985512
