19
Iteration:  4458
 C         0.160545         0.536994         0.215675
 C         1.561786         0.009104         0.148027
 C         1.992994        -1.205062         0.955378
 O         3.361134        -1.570690         0.713528
 C         4.280193        -0.689119         1.284097
 C         4.698104         0.609498         0.413369
 C         3.854238         1.305188        -0.302596
 C         2.429092         1.034781        -0.511115
 O         1.990805        -0.172232        -1.215043
 H        -0.468612         0.071057         1.073293
 H         0.031348         1.607618         0.435584
 H        -0.304710         0.403454        -0.836934
 H         1.667514        -1.239936         2.007337
 H         1.492774        -2.085647         0.658727
 H         3.971846        -0.234619         2.283757
 H         5.299540        -1.256123         1.422396
 H         5.776938         0.818494         0.267147
 H         4.181319         2.129124        -0.915588
 H         1.947647         1.927894        -0.766925
