19
Iteration:  2896
 C         0.041569         0.370381         0.182430
 C         1.435086         0.035369         0.057453
 C         2.207215        -0.653962         1.173469
 O         3.321330        -1.385680         0.637612
 C         4.494208        -0.827187         1.102743
 C         4.648487         0.559975         0.635596
 C         3.860259         1.186803        -0.200089
 C         2.382371         0.878977        -0.699233
 O         1.886048        -0.361428        -1.206428
 H        -0.170975         1.360677        -0.513053
 H        -0.593592        -0.453415        -0.407530
 H        -0.294999         0.528396         1.309746
 H         2.272022         0.168649         2.036564
 H         1.678571        -1.477263         1.701631
 H         4.631448        -0.891010         2.137469
 H         5.364412        -1.330764         0.739135
 H         5.664191         1.023823         0.877098
 H         4.239399         2.077922        -0.638197
 H         2.000641         1.808766        -1.136023
