19
Iteration:   403charge 0 multiplicity 1
 C        -0.116544         0.424578         0.251601
 C         1.428640         0.019055         0.113678
 C         2.017387        -0.894371         1.164920
 O         3.353813        -1.296640         1.003268
 C         4.432688        -0.402518         1.317077
 C         4.821844         0.489691         0.235705
 C         3.942674         1.013729        -0.637030
 C         2.452973         0.856304        -0.636118
 O         1.972398        -0.382680        -1.167203
 H        -0.193989         0.892642         1.232045
 H        -0.180992         1.230182        -0.527710
 H        -0.821269        -0.393964         0.046821
 H         1.868247        -0.408062         2.093078
 H         1.507301        -1.900820         1.067957
 H         4.202549         0.164159         2.187245
 H         5.242573        -1.021793         1.523546
 H         5.919704         0.609010         0.078494
 H         4.343926         1.418653        -1.471009
 H         2.083647         1.672725        -1.277151
