19
Iteration:  2764charge 0 multiplicity 1
 C         0.028293         0.337820         0.228334
 C         1.450621         0.092616         0.147003
 C         2.035482        -0.943884         1.020297
 O         3.373389        -1.384407         0.722492
 C         4.423326        -0.646351         1.318407
 C         4.805573         0.526308         0.487279
 C         3.886004         1.048533        -0.407644
 C         2.448584         0.954358        -0.573911
 O         1.893712        -0.151799        -1.311174
 H        -0.381628         1.057855        -0.517036
 H        -0.503189        -0.694961         0.402307
 H        -0.267019         0.807282         1.284580
 H         1.972332        -0.578555         2.091252
 H         1.399032        -1.837677         1.044326
 H         4.068885        -0.300429         2.360164
 H         5.202738        -1.334602         1.457580
 H         5.852972         0.744084         0.592176
 H         4.318135         1.903923        -0.980811
 H         2.077296         1.857463        -0.923870
