19
Iteration:  4874
 C         0.199450         0.476248         0.289451
 C         1.575792         0.007389         0.117101
 C         2.059117        -1.121963         0.955839
 O         3.371912        -1.470944         0.633156
 C         4.313011        -0.657493         1.317191
 C         4.700411         0.604457         0.620641
 C         3.822846         1.189709        -0.287657
 C         2.422767         0.920207        -0.598179
 O         1.887886        -0.145291        -1.346416
 H         0.296978         1.516851         0.725317
 H        -0.374801         0.681417        -0.592576
 H        -0.479496        -0.099534         0.890120
 H         1.938343        -0.907519         1.967922
 H         1.416007        -1.982143         0.565104
 H         4.006684        -0.461366         2.357911
 H         5.085542        -1.400291         1.349527
 H         5.627835         1.060505         0.855833
 H         4.252690         2.084597        -0.718015
 H         1.900870         1.816458        -0.932121
