19
Iteration:  4282charge 0 multiplicity 1
 C         0.136644         0.408342         0.297013
 C         1.559531         0.084961         0.012892
 C         2.120084        -0.901478         1.047668
 O         3.351390        -1.533704         0.742960
 C         4.490741        -0.810170         1.248953
 C         4.611356         0.607650         0.737543
 C         3.842434         1.170023        -0.235244
 C         2.425273         0.974102        -0.717332
 O         1.787735        -0.174711        -1.470414
 H        -0.365278        -0.366664         0.950729
 H         0.187311         1.412507         0.790140
 H        -0.506238         0.418018        -0.554219
 H         2.314261        -0.289564         1.966126
 H         1.363414        -1.719940         1.202711
 H         4.408874        -0.736093         2.318771
 H         5.453789        -1.374495         1.148242
 H         5.525611         1.054638         0.818391
 H         4.140584         2.148361        -0.682448
 H         1.959558         1.856535        -0.991312
