19
Iteration:   988charge 0 multiplicity 1
 C        -0.115532         0.335569         0.213844
 C         1.419910         0.064505        -0.074586
 C         2.148614        -0.518640         1.213455
 O         3.378435        -1.335255         1.085984
 C         4.613243        -0.727320         1.318031
 C         4.706907         0.531345         0.443289
 C         3.851773         1.026707        -0.381532
 C         2.409328         0.785092        -0.813678
 O         1.870700        -0.383751        -1.397862
 H        -0.346180         0.992983         0.938945
 H        -0.497905         0.698679        -0.775994
 H        -0.632665        -0.531301         0.436112
 H         2.197116         0.443227         1.779367
 H         1.527615        -1.252894         1.844883
 H         4.985020        -0.448653         2.353044
 H         5.375984        -1.381772         1.050209
 H         5.701107         0.944680         0.579797
 H         4.190059         1.886207        -0.890612
 H         2.044632         1.651288        -1.312806
