19
Iteration:   620charge 0 multiplicity 1
 C        -0.021444         0.258455         0.161282
 C         1.479445         0.127915         0.080110
 C         2.107259        -0.623880         1.274191
 O         3.332923        -1.393123         1.054951
 C         4.453504        -0.637430         1.292897
 C         4.744236         0.475221         0.373321
 C         3.889346         1.079787        -0.562821
 C         2.404065         0.868878        -0.752771
 O         1.930342        -0.327069        -1.288430
 H        -0.427152         0.301022         1.131403
 H        -0.415248         1.095452        -0.499817
 H        -0.494829        -0.611015        -0.286729
 H         2.321445         0.147302         2.048112
 H         1.341452        -1.306713         1.526731
 H         4.291795        -0.306863         2.343653
 H         5.363386        -1.361532         1.208981
 H         5.760933         0.900762         0.316997
 H         4.240206         1.823583        -1.165766
 H         2.074324         1.723373        -1.238144
