19
Iteration:  3449
 C         0.058810         0.373448         0.243810
 C         1.540111         0.059658         0.104113
 C         2.064116        -0.945166         1.119885
 O         3.289738        -1.622985         0.888492
 C         4.426725        -0.720407         1.167061
 C         4.673633         0.530581         0.336497
 C         3.867240         1.422397        -0.314663
 C         2.439735         1.038451        -0.642107
 O         1.970209        -0.232679        -1.278116
 H        -0.455562         0.834907        -0.569414
 H        -0.485354        -0.530286         0.360904
 H        -0.101391         0.849962         1.238751
 H         2.037391        -0.488220         2.205087
 H         1.330375        -1.778529         1.002754
 H         4.330943        -0.386490         2.209925
 H         5.283662        -1.424535         1.089960
 H         5.751368         0.753421         0.538071
 H         4.385366         2.286996        -0.797758
 H         1.865860         1.935972        -1.182519
