19
Iteration:  1037charge 0 multiplicity 1
 C         0.083711         0.336685         0.041583
 C         1.568448         0.121126         0.099602
 C         2.043312        -0.698786         1.410440
 O         3.151837        -1.452373         1.083237
 C         4.337531        -0.665603         1.113031
 C         4.648738         0.545216         0.217376
 C         3.795178         1.261152        -0.563797
 C         2.416633         0.909601        -0.775300
 O         2.219968        -0.486511        -1.030890
 H        -0.344505         0.732906         1.085882
 H        -0.145596         1.127876        -0.655759
 H        -0.523713        -0.596527        -0.269103
 H         2.296250         0.075554         2.235600
 H         1.305177        -1.437439         1.764720
 H         4.620036        -0.322932         2.088834
 H         5.143612        -1.434863         0.795266
 H         5.729038         0.916993         0.201977
 H         4.393440         2.121094        -1.089474
 H         1.800335         1.590584        -1.457380
