19
Iteration:  3744charge 0 multiplicity 1
 C         0.117331         0.342384         0.357048
 C         1.531249         0.062025         0.041019
 C         2.082414        -0.940980         1.020111
 O         3.362754        -1.561317         0.937861
 C         4.418657        -0.698215         1.282735
 C         4.646761         0.474636         0.417568
 C         3.844251         1.230498        -0.382553
 C         2.366733         1.061450        -0.720679
 O         1.953316        -0.152504        -1.394157
 H        -0.194928         1.294231         0.136556
 H        -0.653725        -0.473518         0.070547
 H        -0.032514         0.401482         1.433023
 H         2.055852        -0.393837         1.942224
 H         1.359381        -1.789126         1.176808
 H         4.313147        -0.313204         2.379425
 H         5.314727        -1.189625         1.436814
 H         5.599914         0.904015         0.517062
 H         4.218507         2.159283        -0.767469
 H         1.821842         1.908857        -1.178672
