19
Iteration:   997
 C        -0.104253         0.330825         0.117423
 C         1.439221        -0.016941        -0.013097
 C         2.138548        -0.559502         1.253754
 O         3.321604        -1.311582         1.110744
 C         4.662719        -0.691015         1.287321
 C         4.819345         0.495911         0.438027
 C         3.808834         1.059770        -0.402241
 C         2.394159         0.877795        -0.841810
 O         1.826943        -0.401782        -1.329513
 H        -0.327163         0.991253         0.970957
 H        -0.506972         0.822458        -0.804428
 H        -0.544215        -0.661774         0.211218
 H         2.343639         0.341945         1.815538
 H         1.339911        -1.208188         1.676649
 H         4.878454        -0.583119         2.435795
 H         5.265199        -1.474392         0.750638
 H         5.838698         1.047744         0.672493
 H         4.235158         1.920839        -0.830946
 H         2.137219         1.721099        -1.426241
