19
Iteration:  1234
 C         0.009394         0.345742         0.247118
 C         1.474774         0.007076         0.023588
 C         2.089515        -0.839281         1.196487
 O         3.368313        -1.369856         1.053614
 C         4.424214        -0.473726         1.461945
 C         4.777592         0.488382         0.348663
 C         3.972721         0.949210        -0.592299
 C         2.418488         0.912961        -0.758772
 O         1.804641        -0.246096        -1.402529
 H        -0.114801         0.965809         1.140868
 H        -0.435485         0.893013        -0.546538
 H        -0.566869        -0.524806         0.489697
 H         2.142343        -0.222496         2.146737
 H         1.440367        -1.787357         1.425338
 H         4.075805         0.080058         2.337235
 H         5.341174        -0.983468         1.673155
 H         5.802679         0.763670         0.488765
 H         4.485663         1.643596        -1.352936
 H         2.004793         1.812370        -1.305714
