19
Iteration:  3503
 C         0.034664         0.559692         0.406139
 C         1.507955         0.031806        -0.005831
 C         2.131304        -0.997978         1.003880
 O         3.387531        -1.474339         0.777026
 C         4.477855        -0.626075         1.236177
 C         4.614718         0.614356         0.615494
 C         3.871844         1.138024        -0.306142
 C         2.441334         0.895172        -0.693469
 O         1.824780        -0.311469        -1.395442
 H        -0.056627         1.501314         0.059757
 H        -0.757020        -0.018497        -0.002005
 H        -0.068528         0.440811         1.448711
 H         2.143356        -0.409787         1.933546
 H         1.431049        -1.858915         1.170405
 H         4.428692        -0.605065         2.426697
 H         5.442541        -1.343033         1.109303
 H         5.639165         1.020320         0.671037
 H         4.329858         2.042961        -0.805671
 H         2.055456         1.889715        -1.163861
