19
Iteration:  4284
 C         0.146154         0.421580         0.300466
 C         1.565376         0.083437         0.013054
 C         2.129252        -0.898280         1.026895
 O         3.341993        -1.523256         0.737218
 C         4.492114        -0.816658         1.234016
 C         4.603385         0.605801         0.745826
 C         3.833775         1.172288        -0.249943
 C         2.428875         0.971684        -0.698045
 O         1.792583        -0.192337        -1.456319
 H        -0.349929        -0.327264         0.976238
 H         0.163177         1.370898         0.769044
 H        -0.486285         0.393422        -0.601920
 H         2.291929        -0.330549         1.959475
 H         1.324029        -1.749549         1.230464
 H         4.416706        -0.719361         2.370508
 H         5.423390        -1.327782         1.153946
 H         5.556736         1.077629         0.884273
 H         4.139425         2.119989        -0.662339
 H         1.921599         1.933282        -1.016063
