19
Iteration:  2963charge 0 multiplicity 1
 C         0.121802         0.383736         0.172306
 C         1.601277        -0.008792         0.064761
 C         1.994193        -0.941921         1.193419
 O         3.277171        -1.617967         1.017106
 C         4.453157        -0.740428         1.103770
 C         4.660584         0.567627         0.334651
 C         3.837447         1.351121        -0.399030
 C         2.327496         1.083174        -0.574287
 O         2.038761        -0.201591        -1.281212
 H        -0.270936         1.350206        -0.506585
 H        -0.563299        -0.499444        -0.276457
 H        -0.180526         0.613368         1.298742
 H         1.968907        -0.524741         2.260384
 H         1.223135        -1.728853         1.179199
 H         4.609523        -0.467632         2.165122
 H         5.291573        -1.353574         0.803443
 H         5.779102         0.813237         0.521592
 H         4.285614         2.147060        -0.937068
 H         1.797619         1.898365        -0.986894
