19
Iteration:   490
 C         0.059755         0.474195         0.209393
 C         1.457452         0.007395         0.030800
 C         2.042524        -0.848670         1.143784
 O         3.352196        -1.248092         0.975160
 C         4.520020        -0.513928         1.316571
 C         4.792886         0.585919         0.386416
 C         3.918128         1.013916        -0.475357
 C         2.411007         0.798264        -0.685842
 O         1.789545        -0.452937        -1.292437
 H        -0.064922         1.329923         0.821916
 H        -0.517594         0.805694        -0.694559
 H        -0.511224        -0.322809         0.663672
 H         1.986731        -0.272229         2.105939
 H         1.383456        -1.754920         1.394804
 H         4.531378        -0.316401         2.481578
 H         5.304207        -1.158447         1.206464
 H         5.899414         0.788135         0.302245
 H         4.275510         1.699231        -1.159719
 H         1.966245         1.682584        -1.116435
