19
Iteration:  4459charge 0 multiplicity 1
 C         0.160508         0.544587         0.219944
 C         1.571551         0.017275         0.154795
 C         1.989028        -1.208929         0.949205
 O         3.363677        -1.565834         0.714539
 C         4.272974        -0.693624         1.280924
 C         4.700047         0.612518         0.414523
 C         3.846984         1.305032        -0.297346
 C         2.431360         1.027762        -0.512105
 O         1.987053        -0.180772        -1.220726
 H        -0.449754         0.065740         1.062731
 H         0.055180         1.602056         0.427999
 H        -0.302368         0.404198        -0.832123
 H         1.694002        -1.254447         2.011674
 H         1.502809        -2.123956         0.667718
 H         3.952344        -0.209694         2.290262
 H         5.269832        -1.244405         1.402819
 H         5.796956         0.838557         0.278036
 H         4.199001         2.146886        -0.914041
 H         1.950423         1.936268        -0.776779
