19
Iteration:  4148
 C         0.055539         0.338916         0.362378
 C         1.523731         0.055511        -0.033252
 C         2.029559        -1.011333         0.967542
 O         3.377318        -1.524637         0.958565
 C         4.419912        -0.613406         1.340125
 C         4.739518         0.563571         0.482849
 C         3.909563         1.056783        -0.468166
 C         2.425227         1.037639        -0.603978
 O         1.869007        -0.057783        -1.414179
 H        -0.492556         0.394152        -0.552829
 H        -0.329051        -0.557598         0.940442
 H        -0.181218         1.321071         0.871918
 H         1.660914        -0.670799         1.988943
 H         1.413813        -1.864384         0.798701
 H         4.164463        -0.190211         2.447361
 H         5.299259        -1.298322         1.614241
 H         5.841260         0.784801         0.540971
 H         4.380838         1.724433        -1.161741
 H         2.011760         2.020310        -0.736783
