19
Iteration:  1171charge 0 multiplicity 1
 C         0.119735         0.528994         0.257465
 C         1.549184         0.044472         0.096891
 C         1.944985        -0.903410         1.235026
 O         3.256079        -1.450707         0.985668
 C         4.343570        -0.520712         1.242504
 C         4.647801         0.656785         0.313882
 C         3.908029         1.266834        -0.543549
 C         2.465991         0.806077        -0.803942
 O         2.089133        -0.551032        -1.196916
 H         0.141517         1.213017         1.189357
 H        -0.245930         1.081760        -0.681103
 H        -0.469599        -0.330417         0.582018
 H         1.794103        -0.306515         2.155022
 H         1.148088        -1.554525         1.403633
 H         4.325765        -0.179007         2.322538
 H         5.070902        -1.402554         1.146685
 H         5.687067         1.006931         0.405419
 H         4.220219         1.955535        -1.198618
 H         2.002339         1.456783        -1.482931
