19
Iteration:  1660
 C        -0.018382         0.320510         0.364458
 C         1.525002         0.047958        -0.056824
 C         2.045839        -0.764342         1.171346
 O         3.366492        -1.439819         1.084993
 C         4.365107        -0.520320         1.388770
 C         4.779835         0.502234         0.362932
 C         3.940328         1.033348        -0.535818
 C         2.498488         0.916798        -0.837081
 O         1.818021        -0.279921        -1.372048
 H        -0.313367         1.322463         0.827599
 H        -0.548426         0.174137        -0.625671
 H        -0.154383        -0.492454         1.069955
 H         2.105191        -0.160229         2.123612
 H         1.443066        -1.622317         1.268957
 H         4.278308         0.009502         2.396029
 H         5.351649        -1.204859         1.560344
 H         5.790773         0.990866         0.327331
 H         4.326929         1.785750        -1.289652
 H         2.075652         1.747377        -1.322250
