19
Iteration:  3044charge 0 multiplicity 1
 C         0.070508         0.324176         0.359375
 C         1.505884         0.028706         0.027233
 C         2.041582        -1.056875         1.024670
 O         3.342436        -1.501908         0.808167
 C         4.328567        -0.661981         1.340351
 C         4.757255         0.603526         0.488948
 C         3.972406         1.147577        -0.492673
 C         2.464433         1.024932        -0.594573
 O         1.864110        -0.084549        -1.327901
 H        -0.371200         0.715195        -0.527983
 H        -0.436363        -0.544008         0.789989
 H         0.029252         1.117051         1.146723
 H         1.934937        -0.709627         2.120951
 H         1.310904        -1.933705         0.855133
 H         4.058740        -0.299332         2.328752
 H         5.245755        -1.236268         1.492769
 H         5.776298         0.853096         0.488402
 H         4.291142         2.013489        -1.142135
 H         2.113563         1.961593        -1.044714
