19
Iteration:  2871
 C        -0.023171         0.373591         0.083218
 C         1.479801         0.064655         0.088563
 C         2.142661        -0.794884         1.267469
 O         3.269941        -1.418557         0.719872
 C         4.510592        -0.814033         1.104377
 C         4.705046         0.546079         0.488172
 C         3.853492         1.263685        -0.269816
 C         2.433105         0.927262        -0.629526
 O         1.950777        -0.309080        -1.188611
 H        -0.386230         0.927358        -0.749910
 H        -0.533832        -0.595552         0.006331
 H        -0.284753         0.831227         1.055762
 H         2.238651        -0.228967         2.181634
 H         1.481600        -1.630768         1.510938
 H         4.691703        -0.770647         2.102569
 H         5.337086        -1.471470         0.650101
 H         5.608393         0.987753         0.706124
 H         4.106087         2.366866        -0.441584
 H         1.935365         1.900278        -1.074781
