19
Iteration:  3735
 C         0.125088         0.398644         0.435657
 C         1.595844         0.048856        -0.035550
 C         2.086553        -0.956613         1.039837
 O         3.343617        -1.610559         0.952420
 C         4.404042        -0.700379         1.270398
 C         4.664105         0.592700         0.435514
 C         3.808579         1.276576        -0.366670
 C         2.405156         0.995745        -0.746588
 O         1.891157        -0.189891        -1.391051
 H        -0.034746         1.289409        -0.060463
 H        -0.581309        -0.261496        -0.130507
 H         0.113402         0.263985         1.499585
 H         1.945228        -0.475715         2.092718
 H         1.376762        -1.787764         0.857790
 H         4.169443        -0.217435         2.275341
 H         5.329583        -1.395440         1.248303
 H         5.671718         0.919706         0.802244
 H         4.275091         2.133877        -0.779098
 H         1.850688         1.940121        -1.146756
