19
Iteration:  3839charge 0 multiplicity 1
 C         0.125460         0.358755         0.249996
 C         1.548954         0.010434         0.041785
 C         2.048064        -0.907474         1.168319
 O         3.291536        -1.537237         0.911584
 C         4.408224        -0.718037         1.148599
 C         4.616610         0.499770         0.357695
 C         3.800773         1.329631        -0.339804
 C         2.378197         1.059416        -0.584233
 O         2.058594        -0.265376        -1.329885
 H        -0.185175         1.030904        -0.591857
 H        -0.524189        -0.429145         0.339989
 H         0.039665         1.027871         1.097752
 H         2.086422        -0.339932         2.172623
 H         1.340503        -1.758162         1.322448
 H         4.501883        -0.377426         2.139294
 H         5.345373        -1.345130         1.110468
 H         5.594858         0.845146         0.439136
 H         4.242036         2.205928        -0.870662
 H         1.786742         1.858014        -0.938993
