19
Iteration:  2292
 C         0.089431         0.470876         0.432860
 C         1.561062        -0.078424        -0.049792
 C         2.056226        -0.915687         1.137760
 O         3.394572        -1.417097         1.129242
 C         4.398211        -0.472447         1.444042
 C         4.700343         0.551913         0.345474
 C         3.916109         1.045424        -0.614793
 C         2.436708         0.882214        -0.865562
 O         1.826740        -0.311337        -1.432379
 H        -0.118456         0.723848         1.399396
 H        -0.234736         1.392033         0.023730
 H        -0.752448        -0.379261         0.275349
 H         1.980713        -0.211417         1.951389
 H         1.342800        -1.711777         1.384473
 H         4.206197        -0.019095         2.449453
 H         5.226006        -1.158775         1.703676
 H         5.678703         1.145438         0.369280
 H         4.266443         1.860802        -1.258957
 H         1.915397         1.669847        -1.375078
