19
Iteration:  3720
 C         0.230749         0.501983         0.380478
 C         1.598210         0.015604         0.037213
 C         2.032550        -1.076057         1.014582
 O         3.333414        -1.588077         0.921154
 C         4.386336        -0.660270         1.222849
 C         4.613571         0.671910         0.531586
 C         3.880310         1.314448        -0.386933
 C         2.486160         0.963855        -0.734146
 O         1.808468        -0.288226        -1.400197
 H        -0.035984         1.546024         0.243442
 H        -0.577602        -0.190547        -0.007050
 H        -0.008151         0.437321         1.457398
 H         1.859515        -0.695975         1.977311
 H         1.346863        -1.970752         0.938876
 H         4.437300        -0.540736         2.365634
 H         5.287251        -1.129385         1.126294
 H         5.516116         1.168350         0.710942
 H         4.179261         2.305623        -0.807391
 H         1.935187         1.778444        -1.098404
