19
Iteration:  4856
 C         0.031370         0.505891         0.261301
 C         1.487335         0.012802         0.009375
 C         2.031922        -1.175998         0.920288
 O         3.395962        -1.501382         0.672650
 C         4.367034        -0.671580         1.314311
 C         4.687318         0.540804         0.514692
 C         3.891080         1.250711        -0.352437
 C         2.437588         1.073073        -0.420165
 O         1.984266        -0.188512        -1.231590
 H        -0.184369         1.505318         0.739523
 H        -0.415315         0.657869        -0.827845
 H        -0.588905        -0.311631         0.690064
 H         1.797197        -0.875868         2.045642
 H         1.419911        -2.028366         0.707351
 H         4.079070        -0.426845         2.387373
 H         5.401339        -1.162603         1.518534
 H         5.787445         0.767737         0.439356
 H         4.441654         1.984051        -0.996603
 H         1.924569         1.972553        -0.693708
