19
Iteration:  4079charge 0 multiplicity 1
 C         0.121978         0.652606         0.451253
 C         1.544450        -0.076399         0.038297
 C         2.010575        -1.218598         0.952777
 O         3.344302        -1.470997         0.693382
 C         4.265870        -0.511780         1.325787
 C         4.666724         0.641021         0.535800
 C         3.957443         1.255621        -0.457676
 C         2.438240         0.888264        -0.652447
 O         1.986002        -0.331406        -1.258262
 H         0.098300         1.746504         0.035013
 H        -0.681966         0.039034         0.083773
 H         0.059893         0.775603         1.596257
 H         1.606180        -1.077353         2.038348
 H         1.431958        -2.025927         0.634903
 H         3.703406        -0.198938         2.364767
 H         5.156564        -1.136694         1.629168
 H         5.780855         0.941925         0.523856
 H         4.493458         2.004423        -1.119616
 H         1.952830         1.667149        -1.044096
