19
Iteration:  4271charge 0 multiplicity 1
 C         0.047258         0.379895         0.320326
 C         1.488279         0.006848        -0.056805
 C         2.129027        -0.899053         1.123344
 O         3.417871        -1.578145         0.792858
 C         4.467935        -0.771972         1.339742
 C         4.685474         0.547354         0.606386
 C         3.838854         1.213780        -0.225500
 C         2.423277         0.964199        -0.782439
 O         1.815218        -0.053127        -1.490534
 H        -0.391889        -0.462581         0.938133
 H        -0.093630         1.265814         1.016254
 H        -0.478307         0.662790        -0.554812
 H         2.078388        -0.287402         2.078774
 H         1.393847        -1.747827         1.306666
 H         4.382978        -0.763436         2.413596
 H         5.279916        -1.423299         0.931160
 H         5.567581         0.995003         0.825962
 H         4.409446         2.131592        -0.557364
 H         2.104650         1.908933        -1.112195
