19
Iteration:  2937charge 0 multiplicity 1
 C         0.101275         0.380727         0.282861
 C         1.584447         0.053742         0.011486
 C         2.076855        -0.795029         1.116636
 O         3.269253        -1.513460         0.924063
 C         4.457235        -0.775007         1.080628
 C         4.607388         0.580056         0.492023
 C         3.802573         1.298297        -0.247623
 C         2.421759         0.949086        -0.764385
 O         1.986484        -0.317287        -1.293136
 H        -0.275424         1.343505         0.066710
 H        -0.581146        -0.308323        -0.176785
 H         0.032202         0.293269         1.353944
 H         2.173183        -0.300732         2.034370
 H         1.294434        -1.529784         1.186292
 H         4.679018        -0.677181         2.270363
 H         5.276248        -1.436219         0.591938
 H         5.600702         0.878387         0.737600
 H         4.132944         2.328604        -0.516745
 H         1.901802         1.865618        -1.266083
