19
Iteration:  2015charge 0 multiplicity 1
 C        -0.043641         0.182434         0.097851
 C         1.507605         0.078736         0.041922
 C         2.047043        -0.623189         1.256303
 O         3.319092        -1.405195         1.147629
 C         4.570502        -0.665606         1.263449
 C         4.755645         0.375205         0.270876
 C         3.867173         1.127925        -0.472527
 C         2.351153         1.046208        -0.725194
 O         1.911643        -0.270771        -1.278256
 H        -0.570309         0.453611         1.020395
 H        -0.352391         0.900437        -0.696829
 H        -0.384241        -0.950306         0.000562
 H         2.236272         0.242199         1.917349
 H         1.410481        -1.353570         1.760745
 H         4.628689        -0.106739         2.287124
 H         5.380574        -1.462704         1.274188
 H         5.872962         0.638704         0.052908
 H         4.489892         1.793826        -1.103639
 H         1.871841         1.872396        -1.168844
