19
Iteration:  1679charge 0 multiplicity 1
 C         0.176294         0.395830         0.324993
 C         1.563042         0.098960         0.125815
 C         2.009564        -0.954008         1.131941
 O         3.308820        -1.355541         1.048441
 C         4.368094        -0.508317         1.404985
 C         4.663246         0.527950         0.341428
 C         3.935320         1.102517        -0.635593
 C         2.387376         0.879289        -0.798995
 O         1.929332        -0.355518        -1.351318
 H         0.155548         1.370946         0.776578
 H        -0.502189         0.455212        -0.586302
 H        -0.381283        -0.332093         1.077475
 H         1.856072        -0.415329         2.116823
 H         1.336320        -1.873601         1.006998
 H         4.176116        -0.028244         2.356305
 H         5.237719        -1.055604         1.698680
 H         5.781966         0.741602         0.200432
 H         4.346462         1.730572        -1.318479
 H         1.893796         1.747057        -1.179519
