19
Iteration:  4080
 C         0.128582         0.658753         0.455251
 C         1.546884        -0.078279         0.039945
 C         2.008047        -1.210969         0.941216
 O         3.349025        -1.476174         0.696968
 C         4.260029        -0.515348         1.333427
 C         4.662974         0.641337         0.544099
 C         3.951144         1.263574        -0.455819
 C         2.436807         0.881185        -0.651806
 O         1.985053        -0.331888        -1.267748
 H         0.082044         1.725782         0.020206
 H        -0.681063         0.048419         0.084486
 H         0.066354         0.774030         1.627721
 H         1.630382        -1.050876         2.034328
 H         1.452314        -2.025701         0.661218
 H         3.722919        -0.202706         2.340010
 H         5.187461        -1.147233         1.613426
 H         5.805622         0.945422         0.517841
 H         4.467448         1.959580        -1.158802
 H         1.936919         1.685397        -1.053601
