19
Iteration:  1025charge 0 multiplicity 1
 C         0.035614         0.354248         0.037109
 C         1.559307         0.046891         0.143431
 C         2.058388        -0.612871         1.347058
 O         3.214738        -1.388943         1.091249
 C         4.460127        -0.657143         1.134653
 C         4.653280         0.510563         0.278846
 C         3.851854         1.218296        -0.500162
 C         2.455166         0.867267        -0.755063
 O         2.041752        -0.478651        -1.152570
 H        -0.521277         0.700829         0.986423
 H        -0.207262         0.953806        -0.800157
 H        -0.367873        -0.686699        -0.199577
 H         2.245761         0.086968         2.246265
 H         1.207432        -1.258757         1.670973
 H         4.690491        -0.506281         2.166658
 H         5.204190        -1.424705         0.775256
 H         5.660954         0.904629         0.449344
 H         4.124936         2.175459        -1.117665
 H         1.920071         1.675193        -1.375927
