19
Iteration:  3327charge 0 multiplicity 1
 C         0.194925         0.557048         0.427240
 C         1.541662        -0.013960         0.044824
 C         2.076411        -0.999482         1.076120
 O         3.305438        -1.611250         0.835668
 C         4.419438        -0.706463         1.123577
 C         4.512474         0.642525         0.515939
 C         3.814583         1.389149        -0.360578
 C         2.432014         0.920716        -0.693416
 O         2.022380        -0.330001        -1.385454
 H        -0.190076         1.012753        -0.400762
 H        -0.521040        -0.299623         0.620349
 H         0.204032         1.309556         1.199559
 H         2.117390        -0.583401         2.083398
 H         1.281206        -1.762877         1.090601
 H         4.337321        -0.523159         2.270083
 H         5.303698        -1.304233         0.948274
 H         5.472181         1.047534         1.055845
 H         4.034634         2.386080        -0.424999
 H         1.765695         1.764822        -1.223588
