19
Iteration:  2148
 C         0.104517         0.540330         0.412169
 C         1.517932         0.008135         0.045191
 C         2.055722        -0.980033         1.057328
 O         3.444322        -1.360957         1.006820
 C         4.436508        -0.441193         1.457029
 C         4.671182         0.581033         0.456084
 C         3.959899         1.020627        -0.556013
 C         2.439207         0.815729        -0.877273
 O         1.732368        -0.391589        -1.416265
 H        -0.001736         1.285527         1.159945
 H        -0.432275         0.961785        -0.463687
 H        -0.555406        -0.455004         0.752133
 H         1.864905        -0.381360         2.039021
 H         1.437050        -1.893161         1.093171
 H         4.056860         0.053566         2.421718
 H         5.362251        -1.052766         1.729757
 H         5.635477         1.021082         0.504129
 H         4.435370         1.743791        -1.218196
 H         2.096159         1.686917        -1.368283
