19
Iteration:  1321
 C         0.158086         0.623209         0.119875
 C         1.576050        -0.069451         0.089958
 C         1.968382        -1.164157         1.253949
 O         3.345824        -1.432457         1.135644
 C         4.390894        -0.353817         1.377155
 C         4.714330         0.521865         0.206916
 C         3.816659         1.158090        -0.696743
 C         2.436124         0.856343        -0.648265
 O         1.949875        -0.365151        -1.210998
 H        -0.066667         0.958716         1.146202
 H         0.118533         1.545950        -0.480339
 H        -0.595502        -0.038781        -0.279543
 H         1.680847        -0.593137         2.077918
 H         1.467116        -2.190211         1.091223
 H         4.071298         0.246282         2.215792
 H         5.123279        -0.948128         1.780426
 H         5.693249         0.777762        -0.109903
 H         4.175622         1.804597        -1.543399
 H         1.824704         1.795476        -1.076267
