19
Iteration:  3192
 C         0.124148         0.298353         0.219032
 C         1.606297        -0.055309         0.117778
 C         1.978120        -1.152332         1.005254
 O         3.364683        -1.575227         1.125139
 C         4.350123        -0.534186         1.294096
 C         4.711077         0.381927         0.154206
 C         3.865091         1.231369        -0.473076
 C         2.417497         1.110759        -0.399124
 O         1.928277         0.069173        -1.385615
 H        -0.109124         0.860425        -0.716709
 H        -0.445485        -0.554433         0.155705
 H        -0.102641         0.761028         1.058505
 H         1.812169        -0.646541         1.901991
 H         1.327277        -2.012526         0.872069
 H         3.990267         0.129412         2.185888
 H         5.358866        -1.021024         1.559783
 H         5.711047         0.469208        -0.145929
 H         4.221421         2.050214        -1.203941
 H         1.869525         2.168353        -0.472518
