19
Iteration:  3561charge 0 multiplicity 1
 C        -0.040767         0.317047         0.237176
 C         1.503287         0.041205         0.074680
 C         1.975282        -1.056123         1.052319
 O         3.298910        -1.494324         0.868245
 C         4.451147        -0.664431         1.263949
 C         4.765556         0.565145         0.318464
 C         3.913166         1.193095        -0.455498
 C         2.461318         1.075987        -0.445861
 O         2.015447        -0.144283        -1.255796
 H        -0.372186         1.213821        -0.370779
 H        -0.550435        -0.528888         0.063834
 H        -0.076197         0.800345         1.230143
 H         1.878396        -0.588420         2.088307
 H         1.305191        -1.865906         1.036528
 H         4.157817        -0.165260         2.312494
 H         5.316812        -1.375376         1.317359
 H         5.784499         0.795399         0.127788
 H         4.244807         1.780100        -1.280175
 H         1.883383         1.962290        -0.827655
