19
Iteration:  1209
 C         0.181809         0.587250         0.123201
 C         1.517639         0.022294         0.086439
 C         2.027592        -0.943956         1.123836
 O         3.368004        -1.444138         1.109007
 C         4.456241        -0.480729         1.376641
 C         4.682988         0.534026         0.256957
 C         3.818035         1.126250        -0.518680
 C         2.386162         0.864210        -0.715746
 O         1.876370        -0.437548        -1.227692
 H        -0.039139         1.221042         0.955485
 H        -0.109009         1.118161        -0.769153
 H        -0.513418        -0.312276         0.204832
 H         1.922929        -0.515800         2.144092
 H         1.450732        -1.934656         1.060085
 H         4.315443         0.001916         2.330061
 H         5.395164        -0.984655         1.421649
 H         5.741285         0.843142         0.335808
 H         4.275095         1.918067        -1.289919
 H         1.749639         1.702528        -1.238164
