19
Iteration:   793charge 0 multiplicity 1
 C         0.095524         0.601594         0.046426
 C         1.468345        -0.062424         0.233925
 C         2.028150        -1.047080         1.208606
 O         3.393649        -1.430845         1.023871
 C         4.382329        -0.420940         1.355779
 C         4.795487         0.567486         0.203220
 C         3.837664         1.121834        -0.662112
 C         2.384245         0.838496        -0.598151
 O         1.954608        -0.403384        -1.180365
 H        -0.113298         1.148940         0.986699
 H         0.100087         1.458308        -0.786782
 H        -0.786588        -0.008545        -0.282606
 H         1.919356        -0.627257         2.251880
 H         1.289786        -1.847661         1.222149
 H         4.064462         0.142417         2.254628
 H         5.267828        -0.956742         1.694691
 H         5.855411         0.839451         0.097917
 H         4.022977         1.755503        -1.360611
 H         1.857773         1.715039        -0.978943
