19
Iteration:  1609charge 0 multiplicity 1
 C         0.028288         0.396922         0.066477
 C         1.522151         0.018120         0.105125
 C         2.041168        -0.748568         1.296433
 O         3.252648        -1.390663         1.047618
 C         4.521668        -0.589342         1.218849
 C         4.699612         0.498660         0.291770
 C         3.852365         1.151532        -0.512073
 C         2.376834         0.904046        -0.684332
 O         1.994618        -0.417497        -1.193544
 H        -0.022717         1.361780         0.632180
 H        -0.248423         0.476206        -0.966397
 H        -0.561051        -0.366651         0.606826
 H         2.165340        -0.123356         2.201080
 H         1.343270        -1.622009         1.520902
 H         4.720399        -0.198280         2.210014
 H         5.303471        -1.292162         1.128058
 H         5.709275         0.828631         0.153661
 H         4.266462         2.013135        -1.180590
 H         1.804953         1.742225        -1.309593
