19
Iteration:   705charge 0 multiplicity 1
 C         0.120143         0.463530         0.201817
 C         1.617161        -0.003799        -0.007119
 C         2.110390        -0.786372         1.165763
 O         3.362483        -1.478582         1.233378
 C         4.505308        -0.625586         1.373666
 C         4.611350         0.592000         0.363300
 C         3.797586         1.106987        -0.527260
 C         2.377440         0.875268        -0.777891
 O         1.804668        -0.345122        -1.438071
 H         0.027972         1.454533         0.735926
 H        -0.293675         0.612794        -0.885680
 H        -0.434405        -0.402505         0.682454
 H         2.065139         0.125447         1.912331
 H         1.462795        -1.614609         1.528285
 H         4.633272        -0.224428         2.368749
 H         5.352743        -1.354683         1.192742
 H         5.641277         0.961734         0.403397
 H         4.289459         1.809905        -1.073301
 H         1.848759         1.809372        -1.055418
