19
Iteration:  1420
 C         0.004447         0.518443         0.149568
 C         1.493090        -0.022768         0.019746
 C         2.073594        -0.917827         1.266076
 O         3.328070        -1.389934         1.134893
 C         4.507292        -0.548867         1.285245
 C         4.734238         0.535164         0.317327
 C         3.881714         1.186280        -0.564775
 C         2.389355         0.853854        -0.731054
 O         1.922024        -0.417455        -1.262948
 H        -0.029806         1.570300         0.555186
 H        -0.318167         0.617240        -0.927067
 H        -0.593440        -0.063704         0.783001
 H         1.966707        -0.236139         2.114962
 H         1.384265        -1.808592         1.275745
 H         4.465138        -0.120272         2.356211
 H         5.175765        -1.281086         1.330565
 H         5.742075         0.914833         0.265146
 H         4.313836         1.810913        -1.265512
 H         1.833483         1.726626        -1.297739
