19
Iteration:   812charge 0 multiplicity 1
 C         0.064147         0.509435         0.198051
 C         1.477999        -0.028839         0.050082
 C         2.024746        -0.955027         1.198867
 O         3.388160        -1.442386         1.129917
 C         4.407869        -0.400357         1.319768
 C         4.765231         0.493626         0.262691
 C         3.876907         1.075155        -0.574000
 C         2.466061         0.926825        -0.676227
 O         1.882129        -0.371976        -1.281974
 H        -0.280603         0.784814         1.179796
 H        -0.159588         1.343033        -0.429873
 H        -0.605872        -0.252375        -0.179453
 H         1.779915        -0.500178         2.124203
 H         1.535794        -1.980772         1.241955
 H         4.075255         0.281425         2.205685
 H         5.272191        -0.914165         1.629205
 H         5.781263         0.752070        -0.037381
 H         4.288826         1.711911        -1.462027
 H         1.941290         1.817954        -1.142694
