19
Iteration:  1111
 C        -0.075787         0.282319         0.040494
 C         1.439085         0.047641        -0.016397
 C         2.147999        -0.567909         1.256046
 O         3.351052        -1.332260         1.145402
 C         4.580245        -0.729624         1.281183
 C         4.766661         0.533544         0.439237
 C         3.913861         0.981294        -0.468867
 C         2.341724         0.899203        -0.725955
 O         1.822589        -0.328238        -1.320011
 H        -0.347507         0.876456         0.832707
 H        -0.490342         0.758785        -0.795938
 H        -0.596832        -0.658040         0.097735
 H         2.477435         0.286315         1.764953
 H         1.513437        -1.304680         1.812358
 H         4.949874        -0.397057         2.328084
 H         5.318953        -1.355444         0.943871
 H         5.812323         0.832627         0.530652
 H         4.386788         1.951186        -1.051924
 H         1.771133         1.688800        -1.290993
