19
Iteration:   515charge 0 multiplicity 1
 C        -0.033424         0.455765         0.111239
 C         1.494568         0.053599         0.185872
 C         2.112460        -0.852917         1.278690
 O         3.329541        -1.353546         0.802686
 C         4.388068        -0.550206         1.267915
 C         4.799012         0.537318         0.331945
 C         3.934774         1.105987        -0.569447
 C         2.441183         0.821172        -0.723171
 O         1.909822        -0.438459        -1.086545
 H        -0.291611         1.417288         0.581448
 H        -0.406195         0.661610        -0.967638
 H        -0.707642        -0.277585         0.527412
 H         2.292264        -0.330590         2.202989
 H         1.394600        -1.717888         1.481969
 H         3.919118         0.007404         2.160716
 H         5.213210        -1.082018         1.731954
 H         5.821638         0.942259         0.507582
 H         4.304778         1.976080        -1.016292
 H         1.939526         1.689276        -1.225613
