19
Iteration:   288
 C         0.107124         0.573579         0.233309
 C         1.508527        -0.023844         0.059094
 C         1.994477        -0.935546         1.180780
 O         3.360458        -1.458089         1.146873
 C         4.475497        -0.531756         1.237919
 C         4.690424         0.649406         0.280749
 C         3.885700         1.177300        -0.573946
 C         2.409721         0.859554        -0.772652
 O         1.880477        -0.467717        -1.181519
 H         0.099277         1.368742         0.993428
 H        -0.246208         0.999497        -0.804832
 H        -0.690252        -0.146019         0.459513
 H         1.858297        -0.480407         2.149087
 H         1.454901        -1.854294         1.047634
 H         4.559139        -0.147822         2.237643
 H         5.294832        -1.199025         1.004918
 H         5.769716         0.972475         0.451931
 H         4.358522         1.953640        -1.401171
 H         1.773092         1.583851        -1.275950
