19
Iteration:  1474charge 0 multiplicity 1
 C         0.031625         0.313461         0.115359
 C         1.527270         0.084288         0.108907
 C         1.997654        -0.704366         1.397016
 O         3.218463        -1.454259         1.031508
 C         4.409634        -0.603884         1.216726
 C         4.679549         0.545962         0.235954
 C         3.914758         1.240258        -0.559235
 C         2.433210         0.895588        -0.789972
 O         2.114876        -0.436925        -1.184255
 H        -0.256938         0.937279         0.980940
 H        -0.491730         0.908704        -0.720778
 H        -0.549572        -0.562433         0.375020
 H         2.228944        -0.000847         2.266818
 H         1.238282        -1.431027         1.750384
 H         4.507076        -0.240411         2.260199
 H         5.189146        -1.365674         1.013241
 H         5.766771         0.580502         0.193835
 H         4.368184         1.968191        -1.148142
 H         1.691102         1.675617        -1.181993
