19
Iteration:  4183
 C         0.029971         0.356750         0.142207
 C         1.511229         0.032051         0.124937
 C         1.974695        -1.052037         1.103198
 O         3.332351        -1.485464         0.811939
 C         4.322679        -0.553288         1.247889
 C         4.830177         0.402960         0.239831
 C         3.926260         1.245560        -0.336829
 C         2.440266         1.079200        -0.405783
 O         2.014567        -0.165366        -1.216398
 H        -0.288846        -0.052957        -0.831612
 H        -0.521807        -0.269231         0.941037
 H        -0.274242         1.367864         0.268320
 H         1.907018        -0.733647         2.158636
 H         1.387359        -2.021048         0.888740
 H         3.695866         0.165406         1.960789
 H         5.209982        -1.074504         1.745636
 H         5.760144         0.402793        -0.172608
 H         4.286126         1.928620        -1.172827
 H         1.818706         2.040887        -0.656632
