19
Iteration:  3554charge 0 multiplicity 1
 C         0.004214         0.326127         0.277592
 C         1.467573         0.066319         0.105467
 C         2.001244        -0.991319         1.043141
 O         3.323241        -1.469469         0.796829
 C         4.374981        -0.624483         1.256983
 C         4.796435         0.553805         0.397350
 C         3.922720         1.167345        -0.457821
 C         2.413264         1.023439        -0.520499
 O         2.017327        -0.166263        -1.221702
 H        -0.193160         1.253084        -0.423748
 H        -0.615696        -0.675189        -0.006209
 H        -0.217741         0.600267         1.361195
 H         1.841028        -0.620887         2.134469
 H         1.323347        -1.902086         0.955292
 H         4.197511        -0.456867         2.300559
 H         5.172022        -1.301042         1.266458
 H         5.891871         0.813707         0.164037
 H         4.344292         1.751289        -1.289564
 H         1.991169         1.932660        -0.851219
