19
Iteration:  3823
 C         0.039736         0.338020         0.125810
 C         1.535094         0.040660         0.082687
 C         2.006235        -0.922950         1.128947
 O         3.284591        -1.515970         0.897855
 C         4.476030        -0.687431         1.188813
 C         4.757210         0.492385         0.251099
 C         3.818790         1.267316        -0.328230
 C         2.372247         1.063834        -0.522307
 O         2.069537        -0.195072        -1.139008
 H        -0.470849         0.745107        -0.717270
 H        -0.579068        -0.690002         0.229950
 H        -0.309039         0.962222         0.986105
 H         1.967330        -0.512965         2.110496
 H         1.338901        -1.782560         1.145925
 H         4.228313        -0.282314         2.274425
 H         5.210721        -1.433647         0.935718
 H         5.843065         0.677893        -0.146053
 H         4.091049         2.077945        -0.985544
 H         1.902135         1.987363        -1.048730
