19
Iteration:  1838charge 0 multiplicity 1
 C         0.007561         0.457366         0.130930
 C         1.534076         0.031795         0.141160
 C         1.911815        -0.985147         1.195481
 O         3.359167        -1.458461         1.108879
 C         4.405743        -0.399177         1.323375
 C         4.755418         0.459731         0.102358
 C         3.861704         1.102087        -0.635958
 C         2.385219         0.984485        -0.636653
 O         2.086263        -0.363083        -1.123230
 H        -0.016171         1.286818         0.925741
 H        -0.111049         0.906192        -0.866164
 H        -0.820817        -0.263218         0.111606
 H         1.792279        -0.595765         2.240945
 H         1.361806        -1.904736         1.236638
 H         4.083342         0.195069         2.150781
 H         5.385202        -0.956234         1.527634
 H         5.818277         0.640577         0.056541
 H         4.157336         1.770576        -1.426467
 H         1.836699         1.717136        -1.124556
