19
Iteration:  2028charge 0 multiplicity 1
 C        -0.040136         0.181057         0.139252
 C         1.450722         0.061227        -0.031749
 C         2.203978        -0.630871         1.258788
 O         3.334339        -1.354534         1.191518
 C         4.525660        -0.715206         1.332049
 C         4.664061         0.408473         0.268808
 C         3.813643         1.030230        -0.535466
 C         2.375623         1.026490        -0.659956
 O         1.970785        -0.191840        -1.343084
 H        -0.182207         0.597274         1.063079
 H        -0.547064         0.760216        -0.650409
 H        -0.584383        -0.887974        -0.123075
 H         2.254439         0.118375         2.031389
 H         1.371806        -1.326447         1.597616
 H         4.670474        -0.318601         2.479563
 H         5.309805        -1.442340         1.193729
 H         5.718598         0.625922         0.062161
 H         4.149511         1.759831        -1.334386
 H         1.979950         1.994830        -1.108620
