19
Iteration:  4244charge 0 multiplicity 1
 C         0.065607         0.306668         0.238828
 C         1.529764         0.044224        -0.011442
 C         2.024765        -0.896414         0.989501
 O         3.344159        -1.563019         0.934783
 C         4.443187        -0.716285         1.260130
 C         4.719181         0.501276         0.417522
 C         3.844752         1.196982        -0.345143
 C         2.393112         1.066850        -0.520914
 O         1.950982        -0.099603        -1.346118
 H        -0.480756        -0.622992         0.293544
 H        -0.066814         0.721725         1.244849
 H        -0.381937         1.047314        -0.506646
 H         1.765257        -0.513474         1.990190
 H         1.370595        -1.738027         0.893697
 H         4.366264        -0.414868         2.305970
 H         5.296368        -1.420459         1.202666
 H         5.854704         0.867333         0.355378
 H         4.354383         2.040559        -0.733957
 H         1.901753         2.068314        -0.770768
