19
Iteration:  1944
 C         0.113044         0.531931         0.191393
 C         1.530403         0.004532         0.035640
 C         2.068965        -0.718465         1.290032
 O         3.292406        -1.470056         1.057766
 C         4.508088        -0.618283         1.155723
 C         4.598891         0.587365         0.388394
 C         3.791686         1.249123        -0.453482
 C         2.416071         0.801582        -0.867621
 O         1.990083        -0.553611        -1.230968
 H        -0.220563         1.215466         1.087812
 H        -0.095449         1.104007        -0.699053
 H        -0.538149        -0.277400         0.272741
 H         2.234790         0.027571         2.145082
 H         1.269400        -1.463284         1.541578
 H         4.637219        -0.420940         2.244766
 H         5.347363        -1.278618         0.887890
 H         5.480891         1.021829         0.745475
 H         4.140027         2.263883        -0.810877
 H         1.844345         1.588178        -1.483813
