19
Iteration:  4310
 C         0.060536         0.526555         0.291282
 C         1.519419         0.084821         0.084442
 C         2.029507        -1.027882         1.063786
 O         3.320801        -1.493633         0.602471
 C         4.411432        -0.785140         1.153914
 C         4.587639         0.620506         0.668044
 C         3.840507         1.301116        -0.253886
 C         2.475081         0.928567        -0.706155
 O         2.038059        -0.319888        -1.250694
 H        -0.393336         0.085609         1.160889
 H         0.227851         1.578450         0.603773
 H        -0.662050         0.459973        -0.545810
 H         2.119725        -0.741221         2.127793
 H         1.346835        -1.894594         1.001636
 H         4.429110        -0.774274         2.333667
 H         5.366009        -1.256651         0.971025
 H         5.621942         1.125749         0.905179
 H         4.141511         2.314434        -0.561534
 H         1.917706         1.802498        -1.213906
