19
Iteration:   341
 C         0.100589         0.416971         0.347363
 C         1.518564         0.014198        -0.016510
 C         2.095025        -0.852357         1.188001
 O         3.366488        -1.481506         1.116257
 C         4.356728        -0.490509         1.371984
 C         4.688404         0.598100         0.324999
 C         3.861745         1.049290        -0.706433
 C         2.428505         0.964571        -0.722422
 O         1.912960        -0.373332        -1.324700
 H         0.120849         0.856182         1.304662
 H        -0.536888         1.135219        -0.346814
 H        -0.576106        -0.380989         0.450152
 H         2.110649        -0.158872         2.099691
 H         1.377482        -1.607200         1.437133
 H         4.050324         0.081324         2.327951
 H         5.352788        -1.101870         1.634080
 H         5.748290         0.609116        -0.025999
 H         4.270728         1.626713        -1.599385
 H         1.962979         1.679886        -1.349364
