19
Iteration:  1771
 C         0.008226         0.296153         0.461506
 C         1.516254         0.092846         0.039483
 C         2.033769        -0.935476         1.074490
 O         3.383682        -1.405451         1.073097
 C         4.352969        -0.296148         1.501931
 C         4.716066         0.519515         0.371631
 C         3.975847         0.872855        -0.720971
 C         2.504173         0.877250        -0.819012
 O         1.824219        -0.223826        -1.428219
 H        -0.013860         0.526348         1.636628
 H        -0.425650         1.214407         0.049807
 H        -0.664104        -0.434197         0.104617
 H         1.924075        -0.311769         2.052748
 H         1.299714        -1.686313         1.103150
 H         4.162520         0.250772         2.395262
 H         5.265081        -0.968704         1.838891
 H         5.746474         0.691642         0.366901
 H         4.725738         1.336521        -1.484854
 H         2.308704         1.796703        -1.257413
