19
Iteration:  3826charge 0 multiplicity 1
 C         0.054176         0.344229         0.148460
 C         1.544993         0.037019         0.066850
 C         1.999439        -0.925850         1.137504
 O         3.293000        -1.525669         0.898748
 C         4.467262        -0.689615         1.189103
 C         4.724399         0.510496         0.259784
 C         3.795869         1.271037        -0.325997
 C         2.371235         1.062445        -0.514144
 O         2.069977        -0.206716        -1.170451
 H        -0.440723         0.760739        -0.747577
 H        -0.415504        -0.502619         0.250459
 H        -0.180970         0.911658         1.038293
 H         1.957322        -0.401635         2.140569
 H         1.315402        -1.721880         1.149102
 H         4.258334        -0.360448         2.186202
 H         5.273588        -1.450531         0.959454
 H         5.763661         0.681236        -0.074864
 H         4.142090         2.090174        -0.963218
 H         1.980511         1.867500        -1.082458
