19
Iteration:  4531
 C         0.170537         0.389052         0.373787
 C         1.566963         0.050775        -0.037051
 C         2.098535        -1.050396         0.932137
 O         3.381326        -1.496694         0.838301
 C         4.413100        -0.687871         1.453975
 C         4.658204         0.582583         0.626168
 C         3.916466         1.059639        -0.439765
 C         2.438101         0.973793        -0.727300
 O         1.732406        -0.037647        -1.455363
 H        -0.412071        -0.536001         0.495664
 H         0.201279         0.841637         1.378542
 H        -0.450457         1.059629        -0.172305
 H         1.879041        -0.624717         1.948383
 H         1.402459        -1.951459         1.040104
 H         3.993966        -0.355538         2.525130
 H         5.294456        -1.300151         1.519189
 H         5.576931         1.103602         0.841564
 H         4.291228         1.955206        -0.847437
 H         2.204364         2.020099        -1.017057
