19
Iteration:  1434charge 0 multiplicity 1
 C         0.093547         0.537278         0.102042
 C         1.540272         0.052124         0.145586
 C         1.959981        -0.880350         1.296459
 O         3.337692        -1.441725         1.125867
 C         4.439476        -0.584682         1.262506
 C         4.667963         0.532718         0.151710
 C         3.802764         1.233143        -0.505434
 C         2.426995         0.885359        -0.753380
 O         2.028084        -0.476100        -1.193090
 H        -0.002791         1.581200         0.544753
 H        -0.241431         0.482362        -0.947958
 H        -0.597300        -0.210888         0.494589
 H         1.778512        -0.549285         2.296073
 H         1.323601        -1.846532         1.247039
 H         4.475935        -0.043575         2.259324
 H         5.430243        -1.176593         1.235267
 H         5.761466         0.787566         0.103786
 H         4.090452         2.161285        -1.093888
 H         1.904855         1.656195        -1.405948
