19
Iteration:  4865
 C         0.111328         0.499975         0.243145
 C         1.527773         0.006343         0.090927
 C         2.012426        -1.136841         0.891424
 O         3.392680        -1.473132         0.652056
 C         4.348195        -0.672528         1.327554
 C         4.646108         0.581614         0.540629
 C         3.880732         1.194358        -0.305052
 C         2.445915         1.031292        -0.465929
 O         1.932674        -0.188533        -1.282590
 H         0.227903         1.455778         0.890826
 H        -0.308048         0.590301        -0.832195
 H        -0.428830        -0.165297         0.914319
 H         1.949251        -0.922810         1.979537
 H         1.477118        -2.093787         0.769973
 H         3.954155        -0.446377         2.377503
 H         5.338386        -1.282471         1.349413
 H         5.655080         0.958718         0.639308
 H         4.157186         2.035509        -0.948993
 H         2.048715         1.879799        -0.891228
