19
Iteration:  1586
 C         0.012530         0.478029         0.086108
 C         1.517972         0.092516         0.127370
 C         2.005754        -0.808605         1.299065
 O         3.216562        -1.464076         1.100020
 C         4.402739        -0.666921         1.094071
 C         4.714881         0.580572         0.200473
 C         3.842259         1.322677        -0.537980
 C         2.451337         0.855362        -0.779661
 O         2.126679        -0.530414        -1.029185
 H        -0.157265         1.130021         1.001386
 H        -0.263997         0.922504        -0.880589
 H        -0.419883        -0.453398         0.284867
 H         2.116267        -0.204574         2.232183
 H         1.377698        -1.710027         1.489705
 H         4.514917        -0.174013         2.063174
 H         5.231828        -1.355292         1.101832
 H         5.705456         1.026684         0.378762
 H         4.044592         2.371782        -1.031678
 H         1.935338         1.575051        -1.595159
