19
Iteration:  1908charge 0 multiplicity 1
 C         0.051048         0.447369         0.286345
 C         1.482281         0.014488        -0.040046
 C         2.099433        -0.626488         1.182755
 O         3.366042        -1.411633         1.019962
 C         4.571077        -0.628638         1.351184
 C         4.635592         0.569864         0.544206
 C         3.850000         1.071826        -0.445207
 C         2.388153         0.841244        -0.876479
 O         1.840029        -0.459294        -1.378197
 H         0.005311         1.304971         0.865627
 H        -0.419719         0.508205        -0.706733
 H        -0.602667        -0.420914         0.730732
 H         2.202428         0.136760         2.001289
 H         1.405373        -1.425221         1.702193
 H         4.829822        -0.426089         2.354178
 H         5.346782        -1.173176         0.863149
 H         5.633040         1.095492         0.493449
 H         4.465539         1.768657        -1.105086
 H         1.845980         1.752512        -1.460199
