19
Iteration:  2722charge 0 multiplicity 1
 C         0.144398         0.577856         0.432985
 C         1.530823         0.048104         0.045940
 C         2.019844        -1.117209         0.937728
 O         3.384550        -1.522087         0.769433
 C         4.330287        -0.591531         1.345316
 C         4.683435         0.660794         0.529453
 C         3.906211         1.199365        -0.428517
 C         2.455198         0.887641        -0.672502
 O         1.886410        -0.313005        -1.313025
 H         0.208794         1.661770         0.263860
 H        -0.655388         0.013954        -0.106902
 H        -0.203373         0.462127         1.476110
 H         1.819443        -0.926905         1.972315
 H         1.417951        -1.999246         0.586046
 H         3.906017        -0.122459         2.215592
 H         5.281432        -1.094630         1.636040
 H         5.676715         1.117298         0.587157
 H         4.346133         1.997681        -1.031498
 H         1.972170         1.736455        -1.153892
