19
Iteration:  4763charge 0 multiplicity 1
 C         0.043004         0.308762         0.185146
 C         1.497980         0.022839        -0.022987
 C         2.044170        -0.934191         1.023933
 O         3.352349        -1.533632         0.873024
 C         4.453993        -0.815637         1.299573
 C         4.714131         0.476884         0.437991
 C         3.904825         1.283240        -0.239224
 C         2.443113         1.097311        -0.516128
 O         1.858315        -0.055060        -1.381163
 H        -0.276946        -0.410012         1.013285
 H        -0.095244         1.338489         0.452120
 H        -0.407902         0.059852        -0.839841
 H         1.926423        -0.599506         2.101176
 H         1.344683        -1.895528         1.024352
 H         4.433723        -0.359635         2.339753
 H         5.324420        -1.455402         1.423023
 H         5.828075         0.765866         0.386015
 H         4.296481         2.143976        -0.799509
 H         1.983657         2.037563        -0.954972
