19
Iteration:  3380charge 0 multiplicity 1
 C        -0.114265         0.251593         0.129605
 C         1.451737         0.120499         0.092221
 C         2.080866        -0.897479         1.132151
 O         3.334103        -1.500603         0.879689
 C         4.536992        -0.734713         1.152299
 C         4.793708         0.454467         0.319829
 C         3.901881         1.200963        -0.297355
 C         2.426605         1.065111        -0.551038
 O         1.921794        -0.112861        -1.245044
 H        -0.483858         0.201431        -0.825750
 H        -0.582694        -0.524280         0.720772
 H        -0.321256         1.132860         0.586966
 H         2.261832        -0.390199         2.152954
 H         1.303150        -1.765105         1.138034
 H         4.489528        -0.399864         2.162282
 H         5.374040        -1.566923         1.141742
 H         5.786680         0.896782         0.587877
 H         4.206242         2.118440        -0.702021
 H         1.888012         2.062727        -0.812800
