19
Iteration:  3580
 C         0.063863         0.345086         0.187484
 C         1.506489        -0.027467         0.051483
 C         2.026501        -1.042122         1.107198
 O         3.373895        -1.548955         1.033713
 C         4.388265        -0.602224         1.234140
 C         4.740955         0.389301         0.183060
 C         3.899941         1.253190        -0.363079
 C         2.366426         1.076274        -0.482439
 O         1.954717        -0.024455        -1.326996
 H        -0.145304         0.910913        -0.641230
 H        -0.464171        -0.652046         0.192039
 H        -0.174523         0.984473         1.043292
 H         1.742972        -0.654176         2.035243
 H         1.400821        -1.971716         0.971886
 H         4.271906        -0.182265         2.200972
 H         5.322063        -1.346612         1.290720
 H         5.773179         0.582478         0.088072
 H         4.277682         2.198108        -0.820635
 H         1.776692         2.075986        -0.640971
