19
Iteration:  3957charge 0 multiplicity 1
 C         0.018973         0.338412         0.170592
 C         1.518139         0.127307         0.110071
 C         2.044528        -1.050046         1.136846
 O         3.313194        -1.549747         0.995032
 C         4.415874        -0.702344         1.185042
 C         4.705116         0.481481         0.275822
 C         3.834285         1.230359        -0.387995
 C         2.374404         1.118583        -0.522939
 O         2.079221        -0.112311        -1.290256
 H        -0.335912         0.871584        -0.809767
 H        -0.314599        -0.787379         0.193651
 H        -0.336753         0.953353         1.021823
 H         1.792121        -0.773028         2.196217
 H         1.360200        -1.809520         0.819475
 H         4.456940        -0.357111         2.158833
 H         5.250554        -1.385304         1.144892
 H         5.711263         0.778834         0.337300
 H         4.219979         2.074853        -1.011023
 H         1.931406         1.978184        -0.892151
