19
Iteration:   147charge 0 multiplicity 1
 C        -0.051518         0.358939         0.074023
 C         1.465595         0.022925         0.088317
 C         2.058670        -0.559613         1.383413
 O         3.250557        -1.311929         1.098936
 C         4.564685        -0.805179         1.052250
 C         4.679348         0.472174         0.266625
 C         3.825053         1.183936        -0.462155
 C         2.341977         0.912046        -0.780039
 O         2.141814        -0.477733        -1.136112
 H        -0.397476         0.491312         1.085946
 H        -0.301552         1.275903        -0.495437
 H        -0.706625        -0.374157        -0.362095
 H         2.294945         0.231793         2.130563
 H         1.393772        -1.380966         1.749925
 H         4.903238        -0.497509         2.077437
 H         5.166869        -1.655655         0.758775
 H         5.664115         1.022517         0.477175
 H         4.152662         2.223983        -0.879394
 H         1.893760         1.738521        -1.368622
