19
Iteration:  4666charge 0 multiplicity 1
 C         0.033163         0.430469         0.328724
 C         1.470989         0.006580        -0.058652
 C         2.085905        -0.953759         1.031988
 O         3.348323        -1.523251         0.924964
 C         4.461842        -0.740780         1.255536
 C         4.700261         0.574851         0.604580
 C         3.860722         1.150149        -0.333150
 C         2.397683         1.022952        -0.674889
 O         1.905323        -0.122768        -1.452738
 H        -0.666173        -0.172511        -0.272915
 H        -0.133744        -0.074113         1.230442
 H         0.094442         1.544368         0.373701
 H         1.902965        -0.428949         1.982899
 H         1.511379        -1.849759         1.023527
 H         4.638824        -0.745522         2.364718
 H         5.398989        -1.348656         1.061365
 H         5.735483         1.010697         0.747394
 H         4.258801         2.113930        -0.763697
 H         2.014351         1.875394        -1.121548
