19
Iteration:  3328
 C         0.197835         0.555343         0.430106
 C         1.547261        -0.020731         0.042930
 C         2.073566        -0.999072         1.084052
 O         3.299980        -1.613674         0.840092
 C         4.418045        -0.706659         1.116697
 C         4.514028         0.636798         0.512355
 C         3.810559         1.390030        -0.365952
 C         2.432465         0.930274        -0.686398
 O         2.028219        -0.325818        -1.388835
 H        -0.217440         0.985824        -0.449507
 H        -0.511467        -0.330802         0.624604
 H         0.205686         1.353732         1.236017
 H         2.102718        -0.557113         2.066393
 H         1.312687        -1.754458         1.068177
 H         4.321199        -0.535472         2.304777
 H         5.281815        -1.283584         0.935359
 H         5.465406         1.064887         1.051054
 H         4.039217         2.395587        -0.421066
 H         1.772369         1.723242        -1.214625
