19
Iteration:  3834charge 0 multiplicity 1
 C         0.104621         0.377360         0.201081
 C         1.532771         0.029151         0.053029
 C         2.018192        -0.916649         1.175553
 O         3.298415        -1.537635         0.901783
 C         4.431011        -0.713385         1.139843
 C         4.631030         0.517714         0.307573
 C         3.775546         1.303965        -0.334617
 C         2.394573         1.060810        -0.521180
 O         2.069690        -0.248448        -1.281715
 H        -0.194507         0.908567        -0.681850
 H        -0.449931        -0.679722         0.385497
 H         0.057744         0.955516         1.153416
 H         1.991382        -0.328350         2.063737
 H         1.273724        -1.707299         1.214226
 H         4.517380        -0.421098         2.305984
 H         5.340337        -1.310447         1.208618
 H         5.763785         0.777706         0.227440
 H         4.255942         2.093616        -0.873011
 H         1.846142         1.851789        -1.141760
