19
Iteration:   286
 C         0.078140         0.576825         0.232044
 C         1.494367        -0.038833         0.053839
 C         1.998143        -0.928167         1.181323
 O         3.366295        -1.450274         1.125177
 C         4.479441        -0.543977         1.261984
 C         4.683506         0.656892         0.292025
 C         3.899311         1.184230        -0.595372
 C         2.408840         0.855582        -0.760795
 O         1.880053        -0.457523        -1.171342
 H         0.106961         1.351111         0.940540
 H        -0.257026         1.004913        -0.867324
 H        -0.649625        -0.157147         0.475400
 H         1.944457        -0.445214         2.115165
 H         1.478311        -1.830323         1.098631
 H         4.590265        -0.157162         2.276312
 H         5.368838        -1.268636         0.971804
 H         5.762415         0.927203         0.456931
 H         4.353819         1.862226        -1.408169
 H         1.801167         1.550963        -1.250129
