19
Iteration:  4023charge 0 multiplicity 1
 C         0.030234         0.281450         0.233901
 C         1.492655         0.019694        -0.013956
 C         2.076227        -1.046840         1.037973
 O         3.415540        -1.497839         0.935291
 C         4.403132        -0.628800         1.419918
 C         4.752159         0.403283         0.346510
 C         3.873731         1.106095        -0.467227
 C         2.397110         1.133288        -0.509197
 O         1.881030         0.054564        -1.359557
 H        -0.445666         1.173072        -0.351264
 H        -0.548577        -0.671869         0.007220
 H        -0.082993         0.426218         1.336806
 H         1.972161        -0.342259         1.936858
 H         1.445684        -1.905427         1.089729
 H         4.110418        -0.228020         2.444352
 H         5.255771        -1.274044         1.622484
 H         5.807869         0.600797         0.306863
 H         4.438184         1.583754        -1.320078
 H         1.946134         1.993273        -0.824400
