19
Iteration:  1742charge 0 multiplicity 1
 C         0.175465         0.503493         0.316449
 C         1.551392         0.012438         0.105000
 C         2.022758        -1.023869         1.076077
 O         3.414438        -1.334482         0.979542
 C         4.306730        -0.335935         1.426616
 C         4.727616         0.546095         0.328267
 C         3.946822         0.955603        -0.651194
 C         2.423313         0.858804        -0.698886
 O         1.791294        -0.398013        -1.283662
 H         0.174251         0.857071         1.291501
 H        -0.049709         1.317899        -0.390508
 H        -0.658448        -0.195744         0.031915
 H         1.818147        -0.772010         2.100514
 H         1.413313        -1.989998         0.953162
 H         3.820648         0.429454         2.178668
 H         5.072883        -0.910133         1.872890
 H         5.794579         0.784410         0.458578
 H         4.481923         1.609660        -1.277843
 H         1.937951         1.855112        -1.142544
