19
Iteration:  4235charge 0 multiplicity 1
 C         0.106540         0.299255         0.210535
 C         1.545476         0.042504         0.051460
 C         1.991867        -0.998709         1.055002
 O         3.281219        -1.531648         0.914769
 C         4.396311        -0.679664         1.271221
 C         4.729784         0.488688         0.335310
 C         3.858431         1.239125        -0.331612
 C         2.412917         1.101451        -0.520585
 O         1.991332        -0.087173        -1.299821
 H        -0.429680        -0.570147        -0.114119
 H        -0.124531         0.607204         1.280671
 H        -0.250117         1.038836        -0.544840
 H         1.800311        -0.691987         2.135653
 H         1.408072        -1.816703         0.811175
 H         4.442498        -0.447963         2.293794
 H         5.350000        -1.274009         1.169105
 H         5.835085         0.664764         0.238405
 H         4.134006         2.007062        -1.070409
 H         1.923036         1.950033        -0.852290
