19
Iteration:  4330charge 0 multiplicity 1
 C         0.070383         0.586558         0.282018
 C         1.512373         0.042112         0.109294
 C         2.009366        -1.068332         1.050935
 O         3.252627        -1.558423         0.662392
 C         4.375848        -0.720862         1.084920
 C         4.751997         0.626661         0.499486
 C         3.799655         1.380219        -0.138594
 C         2.459481         0.938666        -0.600372
 O         2.107672        -0.338713        -1.223006
 H        -0.557764        -0.017584         0.893664
 H        -0.095020         1.607865         0.373040
 H        -0.377084         0.186983        -0.671575
 H         1.991679        -0.706834         2.071294
 H         1.298419        -1.998792         0.792112
 H         4.344556        -0.593693         2.207738
 H         5.197281        -1.373830         0.985005
 H         5.702616         1.198873         0.721944
 H         4.031060         2.328774        -0.578075
 H         1.901534         1.769206        -1.239364
