19
Iteration:   763
 C         0.089393         0.427871         0.187003
 C         1.523528         0.078338         0.166034
 C         2.010342        -0.905921         1.172925
 O         3.311812        -1.373505         0.899135
 C         4.338832        -0.444722         1.350922
 C         4.807258         0.573658         0.337957
 C         3.933779         1.083276        -0.568427
 C         2.439637         0.866832        -0.759548
 O         1.915646        -0.452285        -1.157645
 H        -0.049195         1.214254         0.950574
 H        -0.375509         0.861330        -0.761338
 H        -0.583925        -0.356256         0.578081
 H         1.946358        -0.553430         2.277612
 H         1.348429        -1.766597         1.097946
 H         4.033844         0.048195         2.259039
 H         5.230680        -1.152233         1.593449
 H         5.856781         0.847979         0.226293
 H         4.209422         1.748463        -1.373832
 H         1.978781         1.636179        -1.311217
