19
Iteration:   366charge 0 multiplicity 1
 C         0.055304         0.304306         0.206194
 C         1.514914         0.051776         0.152923
 C         2.088937        -0.861713         1.235603
 O         3.382488        -1.214342         0.944824
 C         4.434787        -0.428476         1.388507
 C         4.791959         0.435843         0.283733
 C         3.959630         0.872202        -0.598185
 C         2.457502         0.841619        -0.717472
 O         1.710533        -0.262394        -1.271492
 H        -0.392110         0.889940         1.087697
 H        -0.216229         0.854937        -0.631455
 H        -0.619370        -0.592214         0.156070
 H         1.979142        -0.407124         2.208109
 H         1.461303        -1.732564         1.329531
 H         4.219085         0.265019         2.266360
 H         5.204441        -1.110194         1.724555
 H         5.777254         0.846091         0.289832
 H         4.366994         1.715742        -1.426909
 H         2.039375         1.783933        -1.153116
