19
Iteration:  2541charge 0 multiplicity 1
 C         0.118740         0.381415         0.355877
 C         1.533121         0.046259        -0.018110
 C         2.065842        -0.776872         1.107029
 O         3.271004        -1.463877         0.934762
 C         4.519267        -0.652134         1.287518
 C         4.666126         0.572935         0.469523
 C         3.831309         1.187865        -0.398408
 C         2.434839         0.862962        -0.815240
 O         1.898239        -0.344961        -1.350558
 H        -0.708397        -0.544189         0.299153
 H         0.181491         0.824431         1.375731
 H        -0.393812         1.160375        -0.406742
 H         2.087156        -0.128106         2.023890
 H         1.364283        -1.589152         1.358408
 H         4.553392        -0.571294         2.496690
 H         5.389187        -1.240723         1.020996
 H         5.598388         1.157537         0.773459
 H         4.180083         2.132182        -0.884037
 H         1.952471         1.735775        -1.231671
