19
Iteration:  3368charge 0 multiplicity 1
 C        -0.030768         0.328836         0.241043
 C         1.554136         0.077771         0.063200
 C         2.059351        -0.902905         1.101625
 O         3.351025        -1.528712         0.896022
 C         4.466372        -0.795692         1.176550
 C         4.685225         0.498192         0.372380
 C         3.836582         1.293629        -0.320171
 C         2.401847         1.081696        -0.582319
 O         1.985603        -0.180521        -1.295504
 H        -0.453724         0.293625        -0.756718
 H        -0.461907        -0.473133         0.802009
 H        -0.351490         1.220217         0.677221
 H         1.881698        -0.422795         2.128639
 H         1.374212        -1.831661         1.162527
 H         4.600117        -0.555318         2.212611
 H         5.388338        -1.475540         0.904237
 H         5.698113         0.876206         0.402232
 H         4.264261         2.181884        -0.761923
 H         1.949170         2.029674        -0.967969
