19
Iteration:  3082charge 0 multiplicity 1
 C         0.266509         0.669564         0.478912
 C         1.553825        -0.030925        -0.010160
 C         2.075224        -1.195957         0.882059
 O         3.443581        -1.596490         0.885019
 C         4.369980        -0.614690         1.400115
 C         4.573464         0.623888         0.470122
 C         3.780827         1.223194        -0.410011
 C         2.349964         0.943445        -0.719621
 O         1.879631        -0.208972        -1.390637
 H         0.036632         1.559746        -0.237729
 H        -0.624313         0.033724         0.621952
 H         0.485397         1.156755         1.413247
 H         1.602330        -1.137288         1.966017
 H         1.642026        -2.153480         0.563583
 H         3.989769        -0.418637         2.358677
 H         5.291230        -1.185495         1.649233
 H         5.616450         1.042928         0.669073
 H         4.207044         2.190611        -0.667392
 H         1.890345         1.840980        -1.315057
