19
Iteration:  3645
 C         0.099488         0.340926         0.323691
 C         1.502628         0.072920         0.049778
 C         1.981714        -0.995662         1.045014
 O         3.321314        -1.454424         0.781131
 C         4.385650        -0.619258         1.303334
 C         4.800118         0.541143         0.417337
 C         3.936925         1.148596        -0.388354
 C         2.451122         0.983306        -0.563683
 O         1.883243        -0.146027        -1.352325
 H        -0.470605         0.736570        -0.459210
 H        -0.492873        -0.710281         0.519127
 H        -0.183310         0.777888         1.278447
 H         1.962874        -0.707806         2.176354
 H         1.373117        -1.988881         0.898200
 H         4.195865        -0.219918         2.332390
 H         5.318552        -1.299699         1.464511
 H         5.794997         0.832302         0.492300
 H         4.320659         2.030262        -0.961409
 H         1.962618         1.971462        -0.818556
