19
Iteration:   283
 C         0.036575         0.579168         0.208024
 C         1.474321        -0.050851         0.056141
 C         2.016309        -0.913513         1.179329
 O         3.375004        -1.434330         1.088339
 C         4.489235        -0.567588         1.288762
 C         4.684051         0.655371         0.324576
 C         3.906866         1.196396        -0.640643
 C         2.413793         0.842670        -0.736807
 O         1.882243        -0.445865        -1.167346
 H         0.110321         1.403839         0.928472
 H        -0.225463         0.958427        -0.790457
 H        -0.645613        -0.226301         0.530428
 H         2.021068        -0.350210         2.156530
 H         1.428580        -1.878907         1.204018
 H         4.640354        -0.184843         2.364972
 H         5.391093        -1.279749         0.984497
 H         5.715662         0.879658         0.419411
 H         4.311444         1.716433        -1.371808
 H         1.824566         1.610464        -1.266396
