19
Iteration:  1661
 C        -0.015392         0.319205         0.372382
 C         1.535387         0.045126        -0.046755
 C         2.042737        -0.765540         1.177890
 O         3.360151        -1.442269         1.079841
 C         4.365841        -0.510520         1.389924
 C         4.781662         0.502502         0.363928
 C         3.932506         1.036720        -0.533313
 C         2.499156         0.915212        -0.839517
 O         1.821570        -0.285290        -1.380975
 H        -0.313727         1.335367         0.829569
 H        -0.500221         0.189998        -0.608181
 H        -0.162581        -0.455846         1.049546
 H         2.065772        -0.207855         2.143932
 H         1.442538        -1.620136         1.240167
 H         4.258922         0.024731         2.404145
 H         5.344065        -1.209345         1.533023
 H         5.779489         0.959578         0.327664
 H         4.362296         1.796836        -1.325261
 H         2.055468         1.783337        -1.353673
