19
Iteration:  4455charge 0 multiplicity 1
 C         0.147291         0.513518         0.206732
 C         1.536188        -0.011670         0.127239
 C         2.006942        -1.192337         0.973637
 O         3.352580        -1.583063         0.713513
 C         4.314619        -0.670378         1.291601
 C         4.695507         0.589025         0.415379
 C         3.868391         1.305302        -0.321180
 C         2.427716         1.046651        -0.502848
 O         2.001437        -0.145615        -1.201530
 H        -0.485309         0.090233         1.021243
 H         0.001879         1.610993         0.450845
 H        -0.302222         0.390452        -0.771777
 H         1.631825        -1.153103         2.022784
 H         1.409067        -2.034627         0.566814
 H         4.020855        -0.335506         2.254040
 H         5.280988        -1.248788         1.470559
 H         5.726948         0.762072         0.266064
 H         4.168101         2.119222        -0.942676
 H         1.875686         1.967745        -0.777085
