19
Iteration:  4520
 C         0.172646         0.401987         0.482325
 C         1.545816         0.037773        -0.023399
 C         2.062641        -0.977055         0.941331
 O         3.434377        -1.448848         0.777183
 C         4.339784        -0.678446         1.413385
 C         4.587383         0.590447         0.663897
 C         3.897618         1.028650        -0.372374
 C         2.489168         0.929782        -0.750491
 O         1.789400        -0.079254        -1.498885
 H        -0.403699        -0.463927         0.821521
 H         0.308809         1.094114         1.337166
 H        -0.267546         0.913458        -0.349629
 H         1.913839        -0.599228         1.985840
 H         1.476076        -1.870159         0.524471
 H         4.108509        -0.601817         2.566834
 H         5.246276        -1.272787         1.508018
 H         5.550172         1.031354         0.739879
 H         4.359804         1.818428        -0.896403
 H         1.930377         1.878383        -0.923135
