19
Iteration:   930
 C         0.082576         0.551444         0.154495
 C         1.527352         0.059237         0.128005
 C         1.965935        -0.925876         1.283644
 O         3.306141        -1.488520         1.052382
 C         4.359614        -0.526389         1.208216
 C         4.691798         0.594995         0.265158
 C         3.866379         1.211782        -0.597675
 C         2.433019         0.889893        -0.815243
 O         2.098393        -0.500191        -1.087241
 H        -0.021852         1.407712         0.877962
 H        -0.249592         0.968754        -0.754958
 H        -0.609131        -0.290237         0.377981
 H         1.867931        -0.595561         2.347962
 H         1.344953        -1.833928         1.137859
 H         4.281279        -0.109733         2.264191
 H         5.226520        -1.264944         1.141560
 H         5.689998         1.110425         0.365207
 H         4.042284         2.095190        -1.262782
 H         1.787472         1.531985        -1.407130
