19
Iteration:   530charge 0 multiplicity 1
 C         0.037686         0.457024         0.141181
 C         1.493873         0.153284         0.168843
 C         2.047576        -0.865906         1.249089
 O         3.317780        -1.424295         0.884006
 C         4.337307        -0.499064         1.276049
 C         4.697616         0.518806         0.249232
 C         3.856258         1.119803        -0.518675
 C         2.447369         0.891809        -0.721383
 O         2.054142        -0.458681        -1.082148
 H        -0.208106         1.354152         0.814522
 H        -0.156699         0.520416        -0.891187
 H        -0.468365        -0.490349         0.542438
 H         1.998532        -0.463158         2.315468
 H         1.376301        -1.689356         1.351263
 H         4.260056        -0.075021         2.241046
 H         5.288410        -1.260175         1.233552
 H         5.718971         0.799598         0.220038
 H         4.218480         1.982689        -1.316564
 H         1.957052         1.607807        -1.425435
