19
Iteration:  3221charge 0 multiplicity 1
 C         0.085516         0.266856         0.227274
 C         1.627497         0.048162         0.110946
 C         2.011208        -1.084677         1.071997
 O         3.363846        -1.616504         1.087422
 C         4.352713        -0.585783         1.255999
 C         4.628643         0.368380         0.169259
 C         3.869598         1.255003        -0.431734
 C         2.341195         1.231671        -0.555213
 O         2.046430        -0.018277        -1.322594
 H        -0.291179         1.068362        -0.437221
 H        -0.580090        -0.665742        -0.012799
 H        -0.166128         0.436021         1.413373
 H         1.774687        -0.698513         2.191790
 H         1.282594        -1.937978         0.758837
 H         3.999890        -0.071424         2.114214
 H         5.346482        -1.036731         1.534391
 H         5.740392         0.410464        -0.147581
 H         4.410909         2.009052        -1.019294
 H         1.873949         2.123946        -0.772715
