19
Iteration:  1354charge 0 multiplicity 1
 C         0.080173         0.452866         0.331436
 C         1.546139         0.058997         0.022137
 C         2.048800        -0.874220         1.065533
 O         3.321356        -1.380842         1.021844
 C         4.352909        -0.446365         1.430865
 C         4.727287         0.581289         0.334532
 C         3.943343         1.019033        -0.595656
 C         2.503909         0.861790        -0.791890
 O         1.856699        -0.453713        -1.258361
 H        -0.058003         0.862410         1.339118
 H        -0.459684         1.165196        -0.336452
 H        -0.451756        -0.452886         0.518876
 H         1.978948        -0.382223         2.022888
 H         1.422380        -1.838501         1.103154
 H         3.923284         0.253820         2.217395
 H         5.175631        -0.965063         1.779546
 H         5.730182         0.941271         0.405025
 H         4.355017         1.634452        -1.381418
 H         2.051364         1.757643        -1.409272
