19
Iteration:  3519charge 0 multiplicity 1
 C         0.117186         0.432606         0.356122
 C         1.482969         0.057576         0.065592
 C         2.072504        -0.909444         1.034807
 O         3.401716        -1.463901         0.659063
 C         4.403058        -0.728154         1.346129
 C         4.780576         0.625470         0.532803
 C         3.915627         1.184919        -0.356952
 C         2.445169         0.898464        -0.742251
 O         1.764637        -0.284885        -1.280774
 H        -0.217671         1.516930        -0.084965
 H        -0.675632        -0.212350        -0.197505
 H        -0.178838         0.390989         1.469748
 H         2.144254        -0.453571         2.122336
 H         1.484829        -1.815021         1.041589
 H         4.036833        -0.448337         2.316427
 H         5.212023        -1.321901         1.488663
 H         5.648798         1.167539         0.904233
 H         4.207055         2.115182        -0.778230
 H         2.018341         1.770922        -1.143757
