19
Iteration:  3540charge 0 multiplicity 1
 C         0.054504         0.349296         0.299574
 C         1.555746         0.071649         0.146117
 C         2.059113        -0.990060         1.079107
 O         3.318313        -1.374635         0.676610
 C         4.364123        -0.636280         1.284991
 C         4.723237         0.516732         0.454126
 C         3.932020         1.133400        -0.407706
 C         2.468255         0.988826        -0.646543
 O         1.896694        -0.217789        -1.228309
 H        -0.446091         1.290738        -0.245148
 H        -0.452184        -0.511527        -0.180647
 H        -0.305875         0.462362         1.376817
 H         2.057952        -0.685839         2.234859
 H         1.399734        -1.820893         0.941943
 H         4.106545        -0.219292         2.346538
 H         5.222483        -1.234576         1.297213
 H         5.772042         0.696226         0.615045
 H         4.323651         1.963356        -0.941549
 H         1.945483         1.811596        -1.101089
