19
Iteration:   495charge 0 multiplicity 1
 C         0.053700         0.454901         0.187558
 C         1.439586         0.003091         0.045021
 C         2.016408        -0.840789         1.209593
 O         3.358899        -1.279303         0.899563
 C         4.500255        -0.506343         1.351131
 C         4.841972         0.575227         0.379548
 C         3.919729         1.059408        -0.498028
 C         2.436293         0.810240        -0.651209
 O         1.767071        -0.468946        -1.251108
 H        -0.101459         1.425332         0.760770
 H        -0.381166         0.707783        -0.834827
 H        -0.619284        -0.322363         0.621128
 H         2.060928        -0.151434         2.056422
 H         1.426522        -1.756249         1.286443
 H         4.434556        -0.231162         2.388516
 H         5.335261        -1.356483         1.272997
 H         5.866370         0.919372         0.312344
 H         4.347314         1.813092        -1.305859
 H         2.060927         1.721900        -1.174070
