19
Iteration:  2550charge 0 multiplicity 1
 C         0.132473         0.383015         0.335730
 C         1.543929        -0.010688        -0.050226
 C         2.060361        -0.833200         1.145167
 O         3.303690        -1.433748         0.980191
 C         4.526816        -0.708057         1.303631
 C         4.615206         0.539945         0.456817
 C         3.819445         1.168891        -0.457121
 C         2.421192         0.989752        -0.836958
 O         1.921357        -0.320825        -1.336154
 H        -0.581167        -0.493673         0.755258
 H         0.258185         1.000015         1.219647
 H        -0.378092         1.025852        -0.401719
 H         1.884991        -0.248681         2.036582
 H         1.286210        -1.607458         1.114579
 H         4.519683        -0.246558         2.339926
 H         5.375942        -1.325400         1.153659
 H         5.526072         1.051132         0.650830
 H         4.213043         2.196278        -0.651483
 H         1.807278         1.829425        -1.255010
