19
Iteration:  1892charge 0 multiplicity 1
 C        -0.031786         0.382972         0.242897
 C         1.484161         0.053463        -0.005607
 C         2.148682        -0.710827         1.194144
 O         3.332499        -1.358201         1.002729
 C         4.463375        -0.634185         1.323288
 C         4.679692         0.595288         0.445898
 C         3.836229         1.034977        -0.572255
 C         2.437863         0.859785        -0.787839
 O         1.932793        -0.412291        -1.293134
 H        -0.037285         1.400657         0.810011
 H        -0.710670         0.626260        -0.601170
 H        -0.443650        -0.351184         0.927448
 H         2.322059        -0.016281         2.040812
 H         1.479474        -1.469952         1.498880
 H         4.425707        -0.444040         2.473853
 H         5.412948        -1.291406         1.380349
 H         5.715497         0.930544         0.570877
 H         4.244769         1.815813        -1.166259
 H         2.070424         1.615772        -1.339730
