19
Iteration:   651
 C         0.054403         0.361251         0.129672
 C         1.492920         0.071308         0.116518
 C         1.981302        -0.754612         1.294641
 O         3.243580        -1.310703         0.892026
 C         4.314613        -0.554683         1.137218
 C         4.751984         0.531642         0.249919
 C         3.923290         1.200015        -0.492903
 C         2.486538         0.869442        -0.679360
 O         2.068098        -0.528646        -1.033401
 H        -0.140855         0.725922         1.179754
 H        -0.177783         1.200739        -0.601357
 H        -0.430145        -0.641237        -0.081280
 H         1.779205        -0.215789         2.228792
 H         1.247870        -1.532742         1.369263
 H         4.333378        -0.107574         2.205163
 H         5.240758        -1.317034         1.288092
 H         5.831944         0.669105         0.241622
 H         4.238820         1.952844        -1.184439
 H         1.976677         1.472256        -1.405404
