19
Iteration:  2663charge 0 multiplicity 1
 C         0.142488         0.340237         0.389048
 C         1.526196         0.020764         0.089010
 C         2.045198        -1.079411         0.975590
 O         3.376982        -1.514432         0.963170
 C         4.331292        -0.545595         1.452804
 C         4.745917         0.548791         0.381499
 C         3.918278         1.099160        -0.584352
 C         2.438096         0.978057        -0.627924
 O         1.838879        -0.048213        -1.450677
 H        -0.167035         1.285657         0.902179
 H        -0.457321         0.549569        -0.571675
 H        -0.215768        -0.576007         1.096495
 H         1.873733        -0.737037         2.004126
 H         1.425001        -1.946770         0.924020
 H         4.024222         0.040422         2.305356
 H         5.071523        -1.204059         1.735772
 H         5.821000         0.826926         0.452170
 H         4.374830         1.950741        -1.070997
 H         1.973601         1.942765        -0.855750
