19
Iteration:  4991charge 0 multiplicity 1
 C        -0.019555         0.240364         0.086497
 C         1.492747         0.001249         0.185896
 C         1.955977        -1.124488         1.046776
 O         3.313155        -1.368122         0.805471
 C         4.422168        -0.669340         1.252300
 C         4.762252         0.327455         0.256597
 C         3.891133         1.223777        -0.321412
 C         2.421867         1.143097        -0.456708
 O         2.073198         0.034619        -1.171477
 H        -0.484808         0.269285         1.088061
 H        -0.160627         1.174998        -0.370430
 H        -0.562048        -0.498059        -0.629530
 H         1.905781        -0.873805         2.125551
 H         1.544239        -2.066924         0.841669
 H         4.039376        -0.141200         2.208245
 H         5.283661        -1.364329         1.493182
 H         5.782808         0.409201         0.135425
 H         4.396372         2.035766        -0.838133
 H         1.904691         2.170219        -0.754378
