19
Iteration:  2123charge 0 multiplicity 1
 C         0.173380         0.608293         0.246399
 C         1.521065        -0.076724         0.089020
 C         2.061318        -1.005097         1.146815
 O         3.358834        -1.315992         0.834019
 C         4.334735        -0.486074         1.320315
 C         4.734427         0.686516         0.431985
 C         3.915089         1.037457        -0.545385
 C         2.474469         0.794616        -0.678836
 O         1.795558        -0.481358        -1.228090
 H         0.055879         1.345148         1.144024
 H        -0.218393         1.106524        -0.677700
 H        -0.492262        -0.194418         0.424508
 H         2.047860        -0.393854         2.096286
 H         1.438163        -1.897332         1.288494
 H         3.810531         0.074040         2.219625
 H         5.183805        -1.137894         1.784330
 H         5.752885         1.229926         0.491115
 H         4.257830         1.789319        -1.290659
 H         2.064606         1.588981        -1.262622
