19
Iteration:   944charge 0 multiplicity 1
 C         0.144644         0.447927         0.209869
 C         1.635100         0.079707         0.119119
 C         2.057625        -0.806705         1.268958
 O         3.234992        -1.443971         1.012563
 C         4.360493        -0.598277         1.236478
 C         4.558899         0.631198         0.292483
 C         3.860767         1.226186        -0.561244
 C         2.443111         0.839968        -0.812577
 O         2.018418        -0.509325        -1.188931
 H         0.034161         1.221236         0.887462
 H        -0.245270         0.706430        -0.791797
 H        -0.380236        -0.369195         0.607785
 H         2.089252        -0.192947         2.246043
 H         1.203256        -1.566356         1.280532
 H         4.276193        -0.193052         2.236957
 H         5.227362        -1.170232         1.269299
 H         5.592924         0.802309         0.522491
 H         4.379254         2.006637        -1.062711
 H         1.985488         1.630713        -1.369207
