19
Iteration:  1755
 C         0.098200         0.448456         0.401805
 C         1.537768         0.023072         0.025017
 C         2.028726        -0.953678         1.085310
 O         3.380450        -1.348273         1.005113
 C         4.309511        -0.370141         1.502163
 C         4.754156         0.603595         0.376289
 C         3.962907         0.899330        -0.703028
 C         2.469826         0.853711        -0.780485
 O         1.833788        -0.310478        -1.316249
 H        -0.059409         0.532329         1.435364
 H        -0.243036         1.392465        -0.079361
 H        -0.496869        -0.510646         0.228583
 H         1.751854        -0.561420         2.058621
 H         1.502799        -1.945740         0.837580
 H         3.825963         0.058435         2.461642
 H         5.192286        -0.866540         1.807228
 H         5.869028         0.796113         0.158418
 H         4.262705         1.232964        -1.641954
 H         1.981801         1.833577        -1.134931
