19
Iteration:  2243charge 0 multiplicity 1
 C         0.082613         0.332600         0.173460
 C         1.498805         0.044707         0.200196
 C         2.002352        -1.047775         1.165992
 O         3.394410        -1.276729         0.948340
 C         4.331013        -0.259885         1.443346
 C         4.726522         0.378486         0.229099
 C         3.940388         0.921711        -0.735386
 C         2.439332         0.964460        -0.598898
 O         1.955590        -0.249044        -1.186436
 H        -0.283244         0.754276         1.225600
 H        -0.225274         1.248996        -0.416250
 H        -0.555312        -0.402429        -0.029486
 H         1.777184        -0.868968         2.207040
 H         1.463417        -1.956589         0.881265
 H         3.901778         0.362583         2.118142
 H         5.118445        -0.810659         1.981805
 H         5.776150         0.263169        -0.016093
 H         4.228396         1.356937        -1.692215
 H         1.899668         1.929629        -0.939319
