19
Iteration:  3815
 C        -0.067846         0.261610         0.100087
 C         1.456707         0.071204         0.161636
 C         2.029032        -0.956328         1.138356
 O         3.278849        -1.472376         0.885832
 C         4.447887        -0.671195         1.173030
 C         4.812605         0.449608         0.217311
 C         3.885412         1.264333        -0.351619
 C         2.395076         1.101552        -0.533677
 O         2.067566        -0.177982        -1.129021
 H        -0.282120         0.778496        -0.873551
 H        -0.545480        -0.580044         0.184396
 H        -0.424996         0.951672         0.848378
 H         1.955507        -0.593609         2.217700
 H         1.398526        -1.808717         1.069375
 H         4.554893        -0.304692         2.182523
 H         5.313084        -1.418626         1.252288
 H         5.896656         0.615409        -0.004089
 H         4.256870         2.061151        -1.008119
 H         1.775782         1.931411        -0.793075
