19
Iteration:  4984charge 0 multiplicity 1
 C        -0.018714         0.318218         0.076918
 C         1.487199        -0.014180         0.131690
 C         1.977500        -1.088362         1.081558
 O         3.359732        -1.421264         0.756048
 C         4.390581        -0.667779         1.275475
 C         4.750269         0.379422         0.292241
 C         3.941685         1.235479        -0.309305
 C         2.390259         1.114333        -0.420515
 O         2.047286        -0.032477        -1.170200
 H        -0.372964         0.316881         1.106103
 H        -0.253955         1.270587        -0.432898
 H        -0.483452        -0.435494        -0.475478
 H         1.734558        -1.025000         2.215476
 H         1.346090        -1.987373         0.639088
 H         4.186526        -0.088219         2.201271
 H         5.272190        -1.242455         1.427956
 H         5.844638         0.483189         0.038810
 H         4.313776         2.104133        -0.889005
 H         1.827108         2.018591        -0.698261
