19
Iteration:  3640
 C         0.063388         0.322746         0.355205
 C         1.521396         0.041861         0.024605
 C         1.971265        -0.984118         1.065467
 O         3.313723        -1.485980         0.820992
 C         4.402790        -0.629837         1.297633
 C         4.769970         0.536684         0.397287
 C         3.918321         1.148256        -0.407983
 C         2.447526         1.001023        -0.569339
 O         1.927980        -0.090066        -1.344754
 H        -0.498451         0.593785        -0.618315
 H        -0.366129        -0.598391         0.454796
 H        -0.171825         0.809392         1.322134
 H         1.833598        -0.683930         2.075479
 H         1.473392        -1.889855         0.877680
 H         4.155418        -0.257518         2.353468
 H         5.294224        -1.182714         1.323103
 H         5.881915         0.848448         0.442487
 H         4.417402         1.902524        -1.022184
 H         1.923312         1.914058        -0.750544
