19
Iteration:  4173
 C         0.032070         0.323141         0.192578
 C         1.521198        -0.000046         0.068337
 C         2.013139        -1.064288         1.118908
 O         3.336819        -1.423447         0.811459
 C         4.344300        -0.545586         1.343543
 C         4.760868         0.391530         0.245928
 C         3.929328         1.215771        -0.395722
 C         2.433686         1.022212        -0.469570
 O         1.999665        -0.082918        -1.259815
 H        -0.519157         0.134533        -0.775023
 H        -0.470574        -0.315849         0.987932
 H        -0.087561         1.344052         0.436359
 H         1.747704        -0.816712         2.129191
 H         1.328434        -2.012268         0.904616
 H         4.053441        -0.025930         2.362791
 H         5.123782        -1.271562         1.672575
 H         5.761820         0.297548         0.066385
 H         4.329299         2.041586        -1.068522
 H         1.886960         2.093020        -0.753619
