19
Iteration:  4488charge 0 multiplicity 1
 C         0.152243         0.600062         0.443535
 C         1.527544        -0.024807         0.007156
 C         1.985001        -1.131010         0.905980
 O         3.402253        -1.538027         0.636950
 C         4.266636        -0.667721         1.352087
 C         4.683636         0.655210         0.603283
 C         3.886728         1.259193        -0.354974
 C         2.489842         0.912148        -0.683220
 O         1.919678        -0.239513        -1.282439
 H        -0.353008        -0.077471         1.190542
 H         0.468685         1.627820         0.772408
 H        -0.539825         0.646816        -0.403616
 H         1.824992        -1.101667         2.044261
 H         1.581253        -2.102212         0.568597
 H         3.788711        -0.281515         2.191541
 H         5.238078        -1.221218         1.543359
 H         5.634889         1.094213         0.815129
 H         4.223047         2.213953        -0.635429
 H         2.030222         1.871942        -1.018825
