19
Iteration:  2944charge 0 multiplicity 1
 C         0.129452         0.365321         0.266865
 C         1.611981         0.061069         0.006040
 C         2.076197        -0.879021         1.110636
 O         3.264925        -1.501311         0.961136
 C         4.420858        -0.799119         1.098883
 C         4.567804         0.557718         0.450208
 C         3.792761         1.348536        -0.301548
 C         2.451614         1.028303        -0.692167
 O         1.982017        -0.334093        -1.294914
 H        -0.160525         1.379936        -0.053315
 H        -0.567483        -0.310709        -0.203643
 H         0.019213         0.353362         1.350603
 H         2.006131        -0.246177         2.080535
 H         1.325818        -1.712024         1.336845
 H         4.750114        -0.665450         2.123709
 H         5.203734        -1.399662         0.669489
 H         5.566421         0.986581         0.506661
 H         4.227327         2.360518        -0.560445
 H         2.013104         1.892687        -1.139344
