19
Iteration:  2069charge 0 multiplicity 1
 C         0.103321         0.350151         0.192240
 C         1.581395         0.012961         0.067522
 C         2.032634        -0.797139         1.208230
 O         3.327008        -1.470621         1.160905
 C         4.392857        -0.558576         1.298553
 C         4.704207         0.479054         0.218514
 C         3.925813         1.213543        -0.537181
 C         2.448374         0.943729        -0.750489
 O         1.863057        -0.342290        -1.303115
 H        -0.119981         0.770653         1.226531
 H        -0.427971         0.923019        -0.604118
 H        -0.621191        -0.537644         0.269019
 H         1.936373        -0.264682         2.231548
 H         1.215466        -1.538463         1.181720
 H         4.352743        -0.091141         2.252169
 H         5.276148        -1.296607         1.291163
 H         5.781810         0.910436         0.368963
 H         4.275284         2.165243        -1.006278
 H         1.974391         1.706923        -1.262360
