19
Iteration:  1387
 C         0.058517         0.374143         0.331234
 C         1.519202         0.040339         0.033875
 C         2.146227        -0.770270         1.164011
 O         3.332455        -1.289477         0.988839
 C         4.454212        -0.539195         1.464286
 C         4.709494         0.556639         0.474772
 C         3.915177         0.935838        -0.593964
 C         2.467953         0.820675        -0.868056
 O         1.762234        -0.343283        -1.416310
 H         0.019802         1.233452         1.007726
 H        -0.579650         0.396283        -0.601629
 H        -0.319916        -0.520811         0.753193
 H         2.139351        -0.130810         2.057907
 H         1.338669        -1.520115         1.496549
 H         4.178735        -0.011702         2.492572
 H         5.226699        -1.204544         1.648575
 H         5.658147         1.031114         0.547822
 H         4.469260         1.458219        -1.293926
 H         2.046620         1.844773        -1.311692
