19
Iteration:  3233
 C         0.091852         0.236340         0.279113
 C         1.556462         0.102882         0.107640
 C         2.024105        -1.035578         1.037083
 O         3.326638        -1.537977         0.964410
 C         4.364402        -0.603755         1.315019
 C         4.679526         0.398432         0.216526
 C         3.836477         1.229238        -0.426288
 C         2.415732         1.116308        -0.549021
 O         2.029980        -0.045805        -1.298189
 H        -0.253889         1.144664        -0.289379
 H        -0.361028        -0.650277        -0.142918
 H        -0.240040         0.462890         1.350797
 H         1.776641        -0.643999         2.119129
 H         1.364286        -1.975644         0.896584
 H         4.179069        -0.004210         2.200585
 H         5.241429        -1.319607         1.537248
 H         5.767978         0.539458         0.029346
 H         4.267492         2.003078        -1.148373
 H         1.879447         1.935837        -0.932296
