19
Iteration:  2734charge 0 multiplicity 1
 C         0.125643         0.508008         0.371420
 C         1.487182        -0.005575         0.091899
 C         2.030791        -1.109829         0.978441
 O         3.369432        -1.412195         0.685542
 C         4.257935        -0.525146         1.317061
 C         4.695848         0.628970         0.521869
 C         3.979854         1.161957        -0.409567
 C         2.526727         0.887050        -0.685521
 O         1.858274        -0.276915        -1.236530
 H        -0.138700         1.534552         0.053241
 H        -0.659306        -0.049469        -0.150959
 H         0.162859         0.412306         1.421039
 H         1.964452        -0.762869         1.980697
 H         1.427716        -2.070799         0.947872
 H         3.936362        -0.440055         2.323877
 H         5.186463        -1.226948         1.437521
 H         5.793815         0.746053         0.747821
 H         4.309673         1.999791        -1.005491
 H         2.070589         1.811255        -1.136162
