19
Iteration:   255
 C         0.044011         0.398632         0.206648
 C         1.494833         0.032899         0.117898
 C         2.132101        -0.691439         1.273607
 O         3.334263        -1.294959         0.831343
 C         4.458672        -0.571164         1.280446
 C         4.791030         0.501917         0.399519
 C         3.813409         0.949331        -0.468655
 C         2.363197         0.811473        -0.753975
 O         1.857823        -0.381023        -1.248554
 H        -0.128638         1.289902         0.780004
 H        -0.243795         0.552804        -0.939955
 H        -0.358382        -0.493325         0.637033
 H         2.351283        -0.112948         2.191786
 H         1.440998        -1.496400         1.557207
 H         4.316262        -0.046400         2.230130
 H         5.242574        -1.233112         1.485554
 H         5.794277         1.053443         0.495897
 H         4.286392         1.861255        -1.148514
 H         1.998507         1.726106        -1.242732
