19
Iteration:    72
 C         0.106409         0.357466         0.149416
 C         1.551169         0.016890         0.021162
 C         2.140249        -0.594944         1.282020
 O         3.255857        -1.437652         1.089651
 C         4.524894        -0.730632         1.204425
 C         4.681062         0.512140         0.343883
 C         3.738557         1.215135        -0.406662
 C         2.299039         0.966966        -0.717467
 O         1.981159        -0.455699        -1.325626
 H        -0.025175         1.321211         0.779308
 H        -0.436812         0.546551        -0.819180
 H        -0.505646        -0.422467         0.733757
 H         2.346766         0.115095         2.065378
 H         1.351014        -1.313027         1.602238
 H         4.699015        -0.527336         2.272420
 H         5.390106        -1.529235         0.878448
 H         5.715206         0.956704         0.268899
 H         4.276795         1.833680        -1.241836
 H         1.840824         1.860184        -1.240324
