19
Iteration:  4786
 C        -0.021395         0.234984         0.201747
 C         1.575495         0.025766         0.018000
 C         2.041598        -0.969693         1.043663
 O         3.336150        -1.658215         0.951994
 C         4.439911        -0.719902         1.290797
 C         4.651678         0.406357         0.374850
 C         3.834396         1.152899        -0.341826
 C         2.391968         1.194741        -0.552608
 O         2.038953         0.166670        -1.360299
 H        -0.250019        -0.230669         1.241681
 H        -0.443813         1.198989         0.017021
 H        -0.320611        -0.524511        -0.598196
 H         1.974677        -0.422250         2.058367
 H         1.213867        -1.803537         1.150652
 H         4.398517        -0.302974         2.349021
 H         5.395702        -1.220714         1.373927
 H         5.709940         0.696249         0.316560
 H         4.357600         1.890558        -0.951931
 H         1.946356         2.161541        -0.803418
