19
Iteration:  2320charge 0 multiplicity 1
 C         0.192854         0.533423         0.290140
 C         1.632902        -0.009049        -0.006862
 C         2.037472        -0.837544         1.166488
 O         3.373731        -1.486325         1.062617
 C         4.441681        -0.544799         1.284298
 C         4.570260         0.601491         0.433238
 C         3.774832         1.141728        -0.556362
 C         2.417142         0.868670        -0.827110
 O         1.890403        -0.468934        -1.286128
 H         0.010592         1.233220         1.236866
 H        -0.216290         1.290435        -0.460036
 H        -0.472136        -0.220002         0.431534
 H         1.908141        -0.326108         2.194909
 H         1.304886        -1.669153         1.150621
 H         4.354479        -0.132640         2.432529
 H         5.398308        -1.118764         1.316406
 H         5.490618         1.072984         0.388556
 H         4.320779         1.844572        -1.173137
 H         1.815279         1.719634        -1.309420
