19
Iteration:  2763
 C         0.035171         0.341760         0.233617
 C         1.448628         0.091200         0.153900
 C         2.031090        -0.947380         1.019563
 O         3.369832        -1.378931         0.714508
 C         4.427650        -0.646305         1.314608
 C         4.801058         0.534563         0.486837
 C         3.895452         1.046925        -0.409025
 C         2.450008         0.951798        -0.571772
 O         1.893974        -0.158873        -1.315387
 H        -0.362612         1.053882        -0.504113
 H        -0.512174        -0.696162         0.375366
 H        -0.257199         0.798514         1.301823
 H         1.962843        -0.583833         2.115885
 H         1.398467        -1.825622         1.050338
 H         4.028750        -0.308370         2.373415
 H         5.199098        -1.353317         1.508265
 H         5.814095         0.747738         0.615189
 H         4.320278         1.904258        -0.991875
 H         2.067168         1.874946        -0.934880
