19
Iteration:  4701charge 0 multiplicity 1
 C         0.229988         0.564269         0.291382
 C         1.579049         0.066976         0.044928
 C         2.119088        -0.991781         1.051486
 O         3.361469        -1.567253         0.665027
 C         4.331483        -0.726973         1.212861
 C         4.603035         0.678890         0.665085
 C         3.807523         1.264197        -0.222786
 C         2.411767         0.925786        -0.719716
 O         1.889259        -0.333381        -1.287738
 H        -0.488250        -0.076917        -0.199629
 H         0.014466         0.736390         1.356699
 H        -0.096335         1.489148        -0.150622
 H         2.071055        -0.693283         2.124506
 H         1.415270        -1.731111         0.905885
 H         4.075572        -0.715247         2.292622
 H         5.264476        -1.328861         1.000595
 H         5.564106         0.968561         0.876721
 H         4.108969         2.191629        -0.741608
 H         2.021868         1.659768        -1.347343
