19
Iteration:  1689charge 0 multiplicity 1
 C         0.162822         0.533632         0.296146
 C         1.585022        -0.011307         0.066409
 C         1.986579        -0.976356         1.106740
 O         3.366938        -1.396714         1.036308
 C         4.308009        -0.463506         1.413934
 C         4.661710         0.542599         0.286255
 C         3.843297         1.078379        -0.664622
 C         2.434914         0.886782        -0.734474
 O         1.972973        -0.360465        -1.231432
 H         0.166169         1.433556         0.823611
 H        -0.330050         0.619332        -0.703966
 H        -0.287409        -0.269787         1.012007
 H         1.757534        -0.687799         2.152170
 H         1.434389        -1.979863         0.979950
 H         4.053849         0.098990         2.311944
 H         5.130715        -1.082615         1.511219
 H         5.739860         0.883315         0.293223
 H         4.227630         1.751066        -1.331945
 H         1.829488         1.734400        -1.129807
