19
Iteration:  2425
 C         0.097705         0.184182         0.174487
 C         1.561981         0.058268         0.046164
 C         2.110650        -0.693592         1.282967
 O         3.241781        -1.431558         1.189667
 C         4.498117        -0.840402         1.197207
 C         4.577781         0.471367         0.333566
 C         3.837634         1.287674        -0.485678
 C         2.386040         1.074277        -0.810364
 O         1.963324        -0.253544        -1.297231
 H        -0.189288         1.101160        -0.294466
 H        -0.316927        -0.664722        -0.437707
 H        -0.406945         0.111892         1.194150
 H         2.223811         0.137472         1.977781
 H         1.289399        -1.321410         1.670694
 H         4.822331        -0.470684         2.247297
 H         5.272463        -1.603156         0.818317
 H         5.698303         0.771509         0.148006
 H         4.489834         1.948674        -1.037175
 H         1.935698         1.923062        -1.376589
