19
Iteration:  3087charge 0 multiplicity 1
 C         0.263403         0.713684         0.493088
 C         1.556569        -0.063547        -0.025595
 C         2.040299        -1.235951         0.862477
 O         3.439007        -1.620519         0.867074
 C         4.384741        -0.556409         1.374708
 C         4.597513         0.623817         0.525693
 C         3.759100         1.207140        -0.413328
 C         2.349650         0.953768        -0.750617
 O         1.899122        -0.225385        -1.381257
 H         0.055790         1.629807        -0.149051
 H        -0.677747         0.022786         0.643396
 H         0.477697         1.162131         1.589741
 H         1.712359        -1.070423         1.843619
 H         1.463574        -2.165415         0.660884
 H         3.922434        -0.397550         2.507640
 H         5.369973        -0.971375         1.609564
 H         5.529754         1.111768         0.620412
 H         4.316126         2.121232        -0.758177
 H         1.950812         1.843044        -1.112678
