19
Iteration:  1409
 C         0.028127         0.469245         0.175120
 C         1.468237        -0.046440         0.037187
 C         2.027090        -0.800460         1.165651
 O         3.391193        -1.390369         1.103235
 C         4.463811        -0.542777         1.339220
 C         4.764345         0.585151         0.367761
 C         3.909030         1.025374        -0.564624
 C         2.407251         0.864256        -0.753299
 O         1.857877        -0.390175        -1.308221
 H         0.168039         1.443960         0.688615
 H        -0.600514         0.532368        -0.756988
 H        -0.571738        -0.157253         0.780316
 H         1.980094        -0.192897         2.068557
 H         1.394312        -1.674745         1.502070
 H         4.490001        -0.093390         2.411289
 H         5.330349        -1.062294         1.228644
 H         5.790419         0.872519         0.442451
 H         4.286110         1.766295        -1.172277
 H         1.877783         1.864385        -1.077523
