19
Iteration:  3430charge 0 multiplicity 1
 C        -0.001765         0.251485         0.220039
 C         1.504927         0.068373         0.076830
 C         1.995133        -0.892915         1.170378
 O         3.317204        -1.462574         0.778582
 C         4.413436        -0.741102         1.165514
 C         4.770986         0.467712         0.336265
 C         3.821272         1.174157        -0.371743
 C         2.386329         1.102194        -0.533935
 O         2.091766        -0.125342        -1.185676
 H        -0.323601         0.428365        -0.936565
 H        -0.535856        -0.679850         0.508228
 H        -0.294426         1.052759         1.040437
 H         2.110342        -0.338537         2.094847
 H         1.341856        -1.715064         1.277933
 H         4.347777        -0.469295         2.215956
 H         5.195101        -1.401308         1.183576
 H         5.803981         0.734306         0.256446
 H         4.148087         2.132193        -0.883570
 H         1.929418         1.980646        -0.965142
