19
Iteration:  4107
 C         0.247292         0.570753         0.439363
 C         1.584591        -0.028574        -0.008533
 C         2.087132        -1.070564         0.964404
 O         3.406037        -1.521530         0.821604
 C         4.335886        -0.573751         1.430804
 C         4.591582         0.579465         0.579262
 C         3.868046         1.088801        -0.430672
 C         2.408974         0.925958        -0.751142
 O         1.824721        -0.194783        -1.430637
 H        -0.122469         1.390752        -0.158907
 H        -0.588374        -0.175334         0.393977
 H         0.428275         0.818393         1.458004
 H         1.836641        -0.835314         1.978502
 H         1.457292        -2.034272         0.654964
 H         3.910677        -0.214057         2.298985
 H         5.252179        -1.113435         1.622374
 H         5.453585         1.128013         0.736832
 H         4.204661         2.079068        -0.772587
 H         1.940377         1.977498        -1.122751
