19
Iteration:  3864charge 0 multiplicity 1
 C         0.182021         0.430712         0.335252
 C         1.523924         0.045865        -0.017717
 C         2.089936        -0.869375         1.115358
 O         3.318289        -1.624375         0.909627
 C         4.486690        -0.759718         1.184603
 C         4.576352         0.639214         0.588792
 C         3.802811         1.259551        -0.347792
 C         2.452941         0.952260        -0.793918
 O         1.885325        -0.256790        -1.383071
 H        -0.259859         1.206646        -0.267525
 H        -0.546993        -0.587667         0.315961
 H         0.112909         0.944272         1.333799
 H         2.245800        -0.191172         2.052008
 H         1.302581        -1.701715         1.475586
 H         4.604043        -0.590832         2.229475
 H         5.392644        -1.309176         0.899879
 H         5.461524         1.269987         0.832662
 H         3.998173         2.317419        -0.652846
 H         1.998073         1.820576        -1.388306
