19
Iteration:  1216charge 0 multiplicity 1
 C         0.110379         0.515272         0.165540
 C         1.544120         0.035442         0.042848
 C         2.066176        -0.922334         1.164774
 O         3.405475        -1.418044         1.091143
 C         4.441965        -0.496794         1.420828
 C         4.712700         0.526682         0.303531
 C         3.831459         1.116329        -0.537140
 C         2.412001         0.859420        -0.757669
 O         1.819423        -0.386815        -1.282453
 H        -0.125611         1.239214         1.012089
 H         0.023526         1.055141        -0.850006
 H        -0.571068        -0.344203         0.243165
 H         1.739266        -0.492820         2.127747
 H         1.432553        -1.746138         1.221165
 H         4.191228         0.088198         2.367712
 H         5.361090        -1.215102         1.486087
 H         5.784101         0.729757         0.100011
 H         4.246218         1.747137        -1.183422
 H         1.840576         1.674399        -1.051841
