19
Iteration:  4123
 C         0.176754         0.421729         0.434945
 C         1.555505         0.045655        -0.051785
 C         2.079171        -1.116017         0.932495
 O         3.444234        -1.506558         0.946068
 C         4.372401        -0.653638         1.447121
 C         4.633439         0.545972         0.562686
 C         3.918399         1.166933        -0.449775
 C         2.469379         0.986420        -0.837137
 O         1.688640        -0.105723        -1.438372
 H        -0.230108         1.029615        -0.429337
 H        -0.401206        -0.453805         0.629814
 H         0.132392         1.187047         1.257795
 H         1.818553        -0.596736         1.930647
 H         1.466389        -1.963329         0.918889
 H         4.129078        -0.347455         2.579665
 H         5.283802        -1.278595         1.609211
 H         5.609262         1.090422         0.920765
 H         4.496028         1.943939        -0.956764
 H         2.050705         1.891301        -1.020485
