19
Iteration:  1363
 C         0.081484         0.396550         0.397574
 C         1.487169         0.078657        -0.006696
 C         2.063529        -0.804515         1.102463
 O         3.353796        -1.400638         0.964847
 C         4.367033        -0.427189         1.480737
 C         4.740674         0.550140         0.423564
 C         3.946605         0.997136        -0.641043
 C         2.501110         0.868039        -0.842702
 O         1.812777        -0.421733        -1.294078
 H         0.123788         0.994747         1.283598
 H        -0.456844         0.816797        -0.442898
 H        -0.446235        -0.613042         0.429418
 H         1.959121        -0.328879         2.131171
 H         1.267434        -1.552658         1.181238
 H         3.920529         0.101795         2.456626
 H         5.216538        -0.950101         1.782622
 H         5.790951         0.854937         0.378941
 H         4.514398         1.751424        -1.279239
 H         2.138143         1.643033        -1.584402
