19
Iteration:  1103charge 0 multiplicity 1
 C        -0.028299         0.256390         0.033751
 C         1.448145         0.004139         0.025978
 C         2.079717        -0.603298         1.253568
 O         3.318770        -1.311302         1.170056
 C         4.582176        -0.706854         1.260126
 C         4.753259         0.462071         0.373999
 C         3.891875         1.088023        -0.504867
 C         2.396262         0.958332        -0.735228
 O         1.862916        -0.368615        -1.282149
 H        -0.359373         0.819062         0.951068
 H        -0.262137         0.821000        -0.840269
 H        -0.617334        -0.688097         0.069242
 H         2.260888         0.317691         1.909028
 H         1.386209        -1.162055         1.875335
 H         4.863875        -0.673686         2.346665
 H         5.296818        -1.505573         0.868191
 H         5.745164         0.975182         0.464291
 H         4.191866         1.998704        -1.129240
 H         2.050186         1.937966        -1.162429
