19
Iteration:   371charge 0 multiplicity 1
 C         0.031782         0.303673         0.186588
 C         1.491243         0.069136         0.144228
 C         2.085482        -0.885006         1.246480
 O         3.383735        -1.169942         0.937120
 C         4.454105        -0.439616         1.384703
 C         4.830468         0.442968         0.272353
 C         3.970815         0.880295        -0.609955
 C         2.463123         0.840677        -0.687048
 O         1.684708        -0.276012        -1.251065
 H        -0.373280         0.866564         1.007127
 H        -0.285573         0.978282        -0.715075
 H        -0.509020        -0.655055         0.155341
 H         1.842054        -0.434664         2.267274
 H         1.493298        -1.872519         1.250323
 H         4.208941         0.205617         2.212087
 H         5.221139        -1.141491         1.836959
 H         5.889016         0.790144         0.194387
 H         4.291812         1.592602        -1.167724
 H         2.145843         1.736357        -1.225709
