19
Iteration:  3917charge 0 multiplicity 1
 C         0.044665         0.523038         0.222192
 C         1.523428         0.001805         0.070108
 C         2.072675        -0.893968         1.149924
 O         3.324651        -1.410873         0.608960
 C         4.410849        -0.692162         1.170883
 C         4.744328         0.595615         0.530451
 C         3.880440         1.230285        -0.231643
 C         2.432913         0.853478        -0.615365
 O         1.914856        -0.400983        -1.258190
 H        -0.341511         1.236266        -0.493611
 H        -0.594489        -0.235800         0.141510
 H        -0.189949         0.909536         1.221778
 H         2.237315        -0.438111         2.127547
 H         1.553317        -1.813372         1.424262
 H         4.123178        -0.392302         2.271194
 H         5.338792        -1.352784         1.098789
 H         5.626664         1.164826         0.864775
 H         4.116796         2.172531        -0.782069
 H         1.933141         1.785644        -1.017346
