19
Iteration:  1895
 C        -0.035167         0.384403         0.248369
 C         1.482345         0.069518        -0.010939
 C         2.155096        -0.696685         1.196075
 O         3.367003        -1.361993         1.007829
 C         4.468023        -0.635958         1.348711
 C         4.653017         0.589843         0.452825
 C         3.832918         1.038586        -0.549018
 C         2.441621         0.854699        -0.783143
 O         1.917777        -0.430686        -1.321922
 H        -0.017833         1.284566         0.754533
 H        -0.667673         0.709762        -0.611389
 H        -0.524363        -0.339762         1.042133
 H         2.305375         0.088247         1.975548
 H         1.350883        -1.466611         1.478978
 H         4.501386        -0.561501         2.412850
 H         5.356968        -1.288899         1.224827
 H         5.748770         0.974875         0.570292
 H         4.237575         1.769747        -1.204761
 H         2.121508         1.724664        -1.414949
