19
Iteration:  1207charge 0 multiplicity 1
 C         0.188653         0.597810         0.117774
 C         1.519363         0.012108         0.100756
 C         2.012658        -0.957450         1.126326
 O         3.361612        -1.448438         1.112448
 C         4.447375        -0.473308         1.350040
 C         4.683864         0.526595         0.265052
 C         3.813333         1.143730        -0.537883
 C         2.376384         0.872357        -0.710171
 O         1.895793        -0.450165        -1.214929
 H        -0.000706         1.249268         0.999369
 H        -0.166115         1.155561        -0.804306
 H        -0.535947        -0.284771         0.186890
 H         1.961496        -0.516646         2.109820
 H         1.491016        -1.882135         0.995232
 H         4.345907        -0.012412         2.348321
 H         5.446404        -0.999334         1.437891
 H         5.724419         0.909192         0.361855
 H         4.215812         1.876726        -1.226049
 H         1.843177         1.681621        -1.264141
