19
Iteration:  1768
 C         0.007764         0.315246         0.476094
 C         1.527734         0.086491         0.046369
 C         2.048163        -0.937880         1.059240
 O         3.357005        -1.405819         1.053932
 C         4.367686        -0.286429         1.525213
 C         4.704332         0.542839         0.351487
 C         3.958360         0.878593        -0.716191
 C         2.527111         0.864250        -0.800459
 O         1.831866        -0.232327        -1.416067
 H         0.034956         0.537222         1.599030
 H        -0.427641         1.221494        -0.033133
 H        -0.707101        -0.402987         0.041209
 H         1.902296        -0.413743         2.050600
 H         1.309592        -1.774804         1.153602
 H         4.042085         0.191201         2.473542
 H         5.244147        -0.956512         1.740018
 H         5.835777         0.723427         0.332203
 H         4.694154         1.239183        -1.472208
 H         2.299173         1.761343        -1.357423
