19
Iteration:  4083
 C         0.154458         0.675371         0.470351
 C         1.548221        -0.074577         0.052784
 C         2.000372        -1.177761         0.913674
 O         3.366947        -1.491324         0.710918
 C         4.243211        -0.534407         1.364014
 C         4.661466         0.652378         0.555115
 C         3.927348         1.275557        -0.443437
 C         2.445744         0.862666        -0.648784
 O         1.979136        -0.333660        -1.301080
 H         0.037734         1.606563        -0.006048
 H        -0.707720         0.072236         0.092502
 H         0.096097         0.750951         1.601792
 H         1.760712        -0.965607         1.972624
 H         1.452480        -2.141469         0.689657
 H         3.817227        -0.225040         2.234951
 H         5.204238        -1.124596         1.552685
 H         5.763843         0.918047         0.530808
 H         4.364992         1.824790        -1.254808
 H         1.852854         1.800447        -1.103730
