19
Iteration:   677charge 0 multiplicity 1
 C         0.014049         0.521765         0.098292
 C         1.511823         0.021421         0.097762
 C         1.981484        -0.890403         1.306797
 O         3.339707        -1.445617         1.111158
 C         4.486699        -0.604429         1.225047
 C         4.715438         0.554539         0.265651
 C         3.799408         1.203017        -0.556850
 C         2.400608         0.901119        -0.785198
 O         2.030408        -0.440512        -1.172383
 H        -0.074929         1.264161         0.848707
 H        -0.140957         1.046612        -0.842262
 H        -0.617662        -0.316984         0.198873
 H         1.782491        -0.328211         2.202155
 H         1.361683        -1.825903         1.409208
 H         4.535960        -0.111057         2.243680
 H         5.346157        -1.307105         1.275347
 H         5.728440         0.999420         0.295582
 H         4.305989         2.078909        -1.044960
 H         1.883582         1.655776        -1.376669
