19
Iteration:   494charge 0 multiplicity 1
 C         0.058398         0.456350         0.194561
 C         1.441399         0.005324         0.041327
 C         2.021433        -0.841166         1.198495
 O         3.357521        -1.272601         0.913727
 C         4.504805        -0.506049         1.343713
 C         4.832038         0.577403         0.380284
 C         3.921609         1.053138        -0.494937
 C         2.430324         0.806809        -0.655647
 O         1.769942        -0.467073        -1.259023
 H        -0.100979         1.403712         0.759738
 H        -0.428574         0.741399        -0.834819
 H        -0.590733        -0.312353         0.623010
 H         2.054527        -0.183092         2.041911
 H         1.406579        -1.772520         1.306332
 H         4.454217        -0.252356         2.421226
 H         5.327958        -1.322181         1.258700
 H         5.888393         0.893429         0.309101
 H         4.323239         1.764155        -1.250343
 H         2.047069         1.720288        -1.161675
