19
Iteration:   340
 C         0.102897         0.421170         0.354781
 C         1.522065         0.010380        -0.021948
 C         2.093352        -0.855692         1.183688
 O         3.363605        -1.483964         1.126572
 C         4.354297        -0.490477         1.365902
 C         4.686222         0.593445         0.330148
 C         3.851328         1.063901        -0.711950
 C         2.431305         0.970463        -0.728207
 O         1.918983        -0.378956        -1.324264
 H         0.166487         0.852078         1.306732
 H        -0.536636         1.148328        -0.351625
 H        -0.589353        -0.369939         0.455551
 H         2.131862        -0.151120         2.122046
 H         1.359560        -1.639005         1.415951
 H         4.057885         0.100022         2.309818
 H         5.367051        -1.113035         1.613332
 H         5.748121         0.603669        -0.028896
 H         4.256684         1.612471        -1.538866
 H         1.966043         1.670324        -1.369008
