19
Iteration:  2714charge 0 multiplicity 1
 C         0.148724         0.614007         0.456986
 C         1.579172        -0.001208         0.075316
 C         2.029884        -1.104187         0.930301
 O         3.412531        -1.561090         0.821178
 C         4.334729        -0.599081         1.398124
 C         4.682378         0.672372         0.448424
 C         3.830568         1.183673        -0.424119
 C         2.456802         0.946209        -0.715416
 O         1.893101        -0.312253        -1.373467
 H         0.076322         1.698515         0.281651
 H        -0.592537         0.238267        -0.167474
 H        -0.156732         0.425916         1.404700
 H         1.694262        -1.068861         1.994464
 H         1.429208        -1.957460         0.503814
 H         3.928566        -0.136293         2.390281
 H         5.252377        -1.334119         1.669242
 H         5.643754         1.150230         0.769954
 H         4.240437         2.007127        -0.989750
 H         1.798497         1.872659        -1.026305
