19
Iteration:   244
 C         0.082289         0.281660         0.236299
 C         1.504179         0.077186         0.079424
 C         2.128443        -0.638074         1.210569
 O         3.307929        -1.255171         0.826048
 C         4.459289        -0.639160         1.345766
 C         4.797476         0.441678         0.329638
 C         3.897022         1.074470        -0.430926
 C         2.415592         0.848361        -0.775703
 O         1.791449        -0.421435        -1.209997
 H        -0.199250         1.103998         0.854075
 H        -0.463307         0.424540        -0.799273
 H        -0.457179        -0.547742         0.643915
 H         2.231765         0.173212         1.981392
 H         1.446096        -1.392886         1.631090
 H         4.157806        -0.134470         2.280599
 H         5.171262        -1.358799         1.589607
 H         5.803476         0.955953         0.459431
 H         4.253609         2.029915        -1.064607
 H         1.998046         1.685045        -1.337820
