19
Iteration:   817
 C         0.064347         0.448212         0.243608
 C         1.496612        -0.018565         0.063521
 C         2.047299        -0.950599         1.156041
 O         3.374365        -1.388175         1.140056
 C         4.400343        -0.424700         1.373707
 C         4.751947         0.447814         0.264097
 C         3.897783         1.096767        -0.629414
 C         2.450897         0.941519        -0.704284
 O         1.867647        -0.360462        -1.314367
 H        -0.204449         0.706084         1.303576
 H        -0.272186         1.348536        -0.429443
 H        -0.626955        -0.333786        -0.183081
 H         1.782693        -0.433270         2.165164
 H         1.380628        -1.800740         1.203499
 H         4.153516         0.193669         2.219010
 H         5.345271        -0.975798         1.723127
 H         5.806420         0.709203         0.091893
 H         4.380246         1.745402        -1.310852
 H         2.019109         1.798817        -1.157765
