19
Iteration:  1046
 C         0.088463         0.340484         0.036881
 C         1.546468         0.075138         0.130698
 C         2.004168        -0.673688         1.422201
 O         3.166893        -1.482714         1.091994
 C         4.346818        -0.714048         1.067308
 C         4.613362         0.568486         0.183735
 C         3.824754         1.296427        -0.579462
 C         2.393804         0.971043        -0.811733
 O         2.288617        -0.493476        -0.976690
 H        -0.067610         0.643327         1.096956
 H        -0.150544         1.150456        -0.550334
 H        -0.506537        -0.555492        -0.225938
 H         2.161986         0.052788         2.314207
 H         1.173525        -1.399005         1.647087
 H         4.350999        -0.262573         2.114145
 H         5.161624        -1.427744         1.000129
 H         5.676157         0.599716         0.280999
 H         4.178794         2.267424        -1.264684
 H         1.869211         1.647680        -1.599486
