19
Iteration:  3685
 C         0.045633         0.630764         0.330492
 C         1.518947         0.075278         0.133686
 C         2.079931        -1.107669         0.994726
 O         3.432267        -1.428206         0.622603
 C         4.428360        -0.651988         1.330202
 C         4.657833         0.695235         0.584974
 C         3.830883         1.095835        -0.374299
 C         2.391984         0.842835        -0.624300
 O         1.900222        -0.324660        -1.299840
 H        -0.053182         1.620651        -0.290489
 H        -0.709143         0.000691        -0.025526
 H         0.073154         0.691490         1.440561
 H         2.089545        -0.783101         1.994943
 H         1.515114        -2.029219         0.889745
 H         4.031088        -0.501637         2.370070
 H         5.306228        -1.235876         1.274410
 H         5.701956         1.111448         0.726594
 H         4.268909         2.004551        -0.899989
 H         1.959281         1.671508        -1.119485
