19
Iteration:  1463
 C         0.050074         0.396486         0.147009
 C         1.567277         0.040452         0.093065
 C         1.979413        -0.767172         1.361797
 O         3.240915        -1.458048         1.058089
 C         4.343699        -0.627933         1.163018
 C         4.670330         0.503348         0.198451
 C         3.847329         1.299756        -0.614171
 C         2.433351         0.960199        -0.716308
 O         2.144344        -0.482488        -1.088444
 H        -0.066057         1.187113         0.887691
 H        -0.110245         0.670221        -0.939980
 H        -0.458116        -0.547288         0.298398
 H         2.059951        -0.122655         2.310702
 H         1.190574        -1.520074         1.465981
 H         4.357399        -0.204946         2.203519
 H         5.225392        -1.272457         1.219645
 H         5.696919         0.874602         0.208833
 H         4.169733         2.087007        -1.210792
 H         2.019720         1.698631        -1.502225
