19
Iteration:   488
 C         0.053438         0.484051         0.210943
 C         1.466954         0.003921         0.027863
 C         2.048545        -0.852842         1.123731
 O         3.351823        -1.241691         1.002928
 C         4.516772        -0.514212         1.313410
 C         4.782080         0.586762         0.395291
 C         3.902724         0.989817        -0.465374
 C         2.407468         0.795803        -0.704470
 O         1.802510        -0.442811        -1.307794
 H        -0.030252         1.346038         0.917355
 H        -0.506696         0.797649        -0.602922
 H        -0.506642        -0.360553         0.701007
 H         1.937807        -0.296241         2.149183
 H         1.418464        -1.702292         1.405920
 H         4.562547        -0.328769         2.424040
 H         5.385481        -1.178605         1.168769
 H         5.844353         0.756535         0.299492
 H         4.309716         1.789193        -1.245902
 H         1.922026         1.678963        -1.117625
