19
Iteration:  3243
 C         0.063247         0.295185         0.273471
 C         1.532399         0.019517         0.064301
 C         2.050619        -0.960536         1.047151
 O         3.312402        -1.468696         0.871089
 C         4.348802        -0.629777         1.332606
 C         4.756874         0.457492         0.281596
 C         3.908530         1.215484        -0.428930
 C         2.426994         1.042905        -0.541404
 O         1.948749        -0.099428        -1.257861
 H        -0.415765         1.120211        -0.325514
 H        -0.424142        -0.672541        -0.137847
 H        -0.186562         0.213403         1.426849
 H         1.896474        -0.610842         2.177517
 H         1.384289        -1.852645         0.785232
 H         4.120773        -0.224490         2.279954
 H         5.239880        -1.289818         1.437660
 H         5.859354         0.703672         0.204157
 H         4.250040         1.934655        -1.200720
 H         1.995512         1.964921        -0.765919
