19
Iteration:  4262
 C        -0.007886         0.371606         0.340339
 C         1.465568         0.005350        -0.073057
 C         2.129344        -0.947626         1.049535
 O         3.377327        -1.537437         0.879840
 C         4.483391        -0.784365         1.302402
 C         4.696525         0.480128         0.539242
 C         3.870229         1.210580        -0.274189
 C         2.437479         1.049604        -0.699115
 O         1.862049        -0.056619        -1.474148
 H        -0.599555        -0.559274         0.624195
 H        -0.011863         1.090702         1.124227
 H        -0.546630         0.655152        -0.568537
 H         2.205048        -0.312489         1.950072
 H         1.392011        -1.838477         1.355415
 H         4.554337        -0.551303         2.462389
 H         5.428962        -1.310380         1.267380
 H         5.595967         0.952304         0.901297
 H         4.203272         2.171453        -0.679862
 H         1.996619         2.055759        -1.124192
