19
Iteration:  2918
 C        -0.029428         0.379454         0.316809
 C         1.475692         0.118436         0.014284
 C         2.116286        -0.762943         1.179460
 O         3.295442        -1.470618         0.760329
 C         4.554560        -0.869184         1.133148
 C         4.658946         0.625654         0.572778
 C         3.815854         1.203040        -0.252215
 C         2.424440         0.941406        -0.788266
 O         1.987647        -0.362081        -1.316120
 H        -0.330793         1.478563        -0.121080
 H        -0.714860        -0.328733        -0.340994
 H        -0.255725         0.357259         1.467364
 H         2.340262         0.055585         2.027897
 H         1.485248        -1.487176         1.699448
 H         4.648236        -0.823366         2.148924
 H         5.348399        -1.517194         0.772255
 H         5.413401         1.388316         0.982741
 H         4.070611         2.210934        -0.441919
 H         2.214236         1.821322        -1.384501
