19
Iteration:  4676charge 0 multiplicity 1
 C         0.106805         0.464578         0.349384
 C         1.507022         0.013264        -0.060417
 C         2.053305        -1.007271         1.015798
 O         3.394402        -1.528014         0.868874
 C         4.463456        -0.736587         1.285062
 C         4.652657         0.562465         0.586527
 C         3.910437         1.223765        -0.328149
 C         2.405545         0.956248        -0.732122
 O         1.867333        -0.179027        -1.413563
 H        -0.666976         0.124839        -0.374963
 H        -0.099835         0.311108         1.345586
 H        -0.251245         1.541403         0.300198
 H         2.019104        -0.417568         1.955310
 H         1.323766        -1.811203         1.190221
 H         4.454746        -0.600666         2.380969
 H         5.238007        -1.389274         0.877163
 H         5.491918         1.136879         1.153117
 H         4.105325         2.304885        -0.419913
 H         1.955597         1.859929        -1.059838
