19
Iteration:   357
 C         0.038987         0.354347         0.272877
 C         1.535134         0.021526         0.121932
 C         2.071640        -0.807487         1.214497
 O         3.379120        -1.353106         0.979521
 C         4.405246        -0.422501         1.429962
 C         4.789826         0.472079         0.306654
 C         3.895480         0.948513        -0.675354
 C         2.414921         0.854884        -0.749431
 O         1.801882        -0.281149        -1.299299
 H        -0.183283         0.908070         1.257758
 H        -0.187784         0.872043        -0.587594
 H        -0.517495        -0.647473         0.188822
 H         2.155473        -0.194140         2.075320
 H         1.412434        -1.702979         1.366457
 H         4.099628         0.078160         2.338650
 H         5.246514        -0.986043         1.577910
 H         5.796828         0.873311         0.342544
 H         4.439480         1.477685        -1.521155
 H         1.970416         1.882922        -0.937948
