19
Iteration:  2065charge 0 multiplicity 1
 C         0.095772         0.310693         0.186858
 C         1.578649         0.011555         0.033899
 C         2.073697        -0.784161         1.228599
 O         3.291634        -1.451999         1.184659
 C         4.395765        -0.611391         1.298926
 C         4.711297         0.499126         0.218431
 C         3.908187         1.216883        -0.550367
 C         2.460628         0.928496        -0.728506
 O         1.853383        -0.299890        -1.329102
 H        -0.119292         0.761194         1.238706
 H        -0.347308         0.940955        -0.596954
 H        -0.435800        -0.562815         0.298630
 H         1.968651        -0.160172         2.135419
 H         1.365190        -1.660121         1.351626
 H         4.368129        -0.055063         2.360993
 H         5.230169        -1.339386         1.332208
 H         5.741818         0.834302         0.308699
 H         4.237199         2.097342        -1.048250
 H         1.927594         1.787053        -1.283484
