19
Iteration:  1484
 C        -0.001740         0.270294         0.142348
 C         1.515186         0.057767         0.102290
 C         2.100461        -0.641742         1.309622
 O         3.188506        -1.371928         1.073248
 C         4.435464        -0.652278         1.208584
 C         4.743919         0.504364         0.328337
 C         3.866068         1.158587        -0.530834
 C         2.420082         0.886813        -0.777249
 O         2.027033        -0.380327        -1.232759
 H        -0.203634         0.761397         1.097283
 H        -0.461889         0.856440        -0.734649
 H        -0.509712        -0.730084         0.037826
 H         2.278270         0.159755         2.118593
 H         1.400469        -1.322907         1.761460
 H         4.548873        -0.315672         2.247501
 H         5.366346        -1.337790         0.991236
 H         5.777232         0.843774         0.235070
 H         4.324097         1.844262        -1.164445
 H         2.019403         1.739753        -1.388214
