19
Iteration:  2324
 C         0.156071         0.575851         0.276173
 C         1.630618         0.003361         0.025386
 C         2.049859        -0.874752         1.179577
 O         3.363911        -1.488351         1.048943
 C         4.426934        -0.578348         1.306152
 C         4.583232         0.639542         0.396256
 C         3.789450         1.161197        -0.562910
 C         2.406377         0.876347        -0.832158
 O         1.894502        -0.481262        -1.252347
 H         0.066906         1.190530         1.130148
 H        -0.224836         1.087755        -0.586249
 H        -0.557159        -0.323661         0.430499
 H         1.964854        -0.302925         2.073666
 H         1.337169        -1.697839         1.211212
 H         4.377847        -0.171196         2.273112
 H         5.419781        -1.137979         1.258277
 H         5.652448         1.050113         0.605252
 H         4.238224         1.958990        -1.169790
 H         2.023384         1.681020        -1.391812
