19
Iteration:  1033
 C         0.056396         0.350278         0.053386
 C         1.582778         0.093507         0.115982
 C         2.059215        -0.677095         1.379884
 O         3.158891        -1.427219         1.086508
 C         4.376783        -0.647422         1.111803
 C         4.645714         0.525674         0.226619
 C         3.832629         1.243586        -0.530309
 C         2.431558         0.891574        -0.767339
 O         2.162335        -0.481864        -1.073731
 H        -0.417050         0.628517         0.908852
 H        -0.180832         1.048441        -0.749671
 H        -0.437308        -0.533626        -0.205879
 H         2.295877        -0.019430         2.237466
 H         1.243796        -1.339098         1.803877
 H         4.720364        -0.446588         2.211812
 H         5.081652        -1.325127         0.817170
 H         5.568934         0.977081         0.233764
 H         4.286552         2.106621        -1.088789
 H         1.824362         1.552411        -1.401057
