19
Iteration:  3835
 C         0.107264         0.371872         0.210914
 C         1.533223         0.026435         0.051385
 C         2.021229        -0.916787         1.176354
 O         3.297313        -1.537748         0.903145
 C         4.425843        -0.714508         1.138837
 C         4.625588         0.513999         0.316749
 C         3.779035         1.309629        -0.336141
 C         2.392918         1.062070        -0.530745
 O         2.068440        -0.252622        -1.292541
 H        -0.182097         0.934022        -0.665420
 H        -0.435846        -0.609113         0.377451
 H         0.061303         0.964966         1.138542
 H         2.006178        -0.333398         2.072875
 H         1.305579        -1.690035         1.231120
 H         4.530338        -0.416298         2.285126
 H         5.348935        -1.309850         1.209316
 H         5.746610         0.792905         0.266165
 H         4.254644         2.104990        -0.868466
 H         1.835228         1.844657        -1.106546
