19
Iteration:  1814charge 0 multiplicity 1
 C         0.085215         0.433800         0.178254
 C         1.551524        -0.004149         0.064311
 C         1.992574        -0.944335         1.188132
 O         3.434553        -1.403991         1.199490
 C         4.380802        -0.408069         1.375194
 C         4.719060         0.412547         0.203799
 C         3.869611         1.056782        -0.633266
 C         2.396961         0.954718        -0.665906
 O         1.886633        -0.274083        -1.319613
 H        -0.186269         0.858394         1.254860
 H        -0.180546         1.145255        -0.603852
 H        -0.491130        -0.377117        -0.158770
 H         1.756944        -0.468272         2.180292
 H         1.527787        -1.880625         1.264883
 H         4.005860         0.168063         2.207593
 H         5.404104        -0.888212         1.643842
 H         5.741180         0.335358        -0.029537
 H         4.414227         1.615979        -1.463904
 H         1.867636         1.795786        -0.854080
