19
Iteration:   774
 C         0.076925         0.544498         0.119886
 C         1.558958         0.015718         0.139435
 C         2.012456        -1.025484         1.252335
 O         3.371764        -1.317742         0.911286
 C         4.323359        -0.426466         1.294822
 C         4.712920         0.529161         0.278123
 C         3.871035         1.092731        -0.610850
 C         2.461029         0.845181        -0.662928
 O         1.923195        -0.435768        -1.098643
 H        -0.109412         1.289193         0.912718
 H        -0.112546         0.976420        -0.944240
 H        -0.566115        -0.363096         0.182065
 H         1.908225        -0.631903         2.348333
 H         1.373348        -1.889718         1.078103
 H         4.060226         0.057877         2.211311
 H         5.297537        -1.015947         1.585115
 H         5.779602         0.741279         0.349779
 H         4.416606         1.813097        -1.260292
 H         1.979167         1.642520        -1.149580
