19
Iteration:  4274charge 0 multiplicity 1
 C         0.075846         0.384966         0.320917
 C         1.508564         0.030207        -0.033953
 C         2.125389        -0.888213         1.122741
 O         3.408950        -1.575820         0.773438
 C         4.481013        -0.780183         1.311488
 C         4.651618         0.570892         0.640062
 C         3.850102         1.201644        -0.213429
 C         2.426642         0.945061        -0.775218
 O         1.800847        -0.080005        -1.492173
 H        -0.353712        -0.430334         0.940736
 H        -0.004821         1.262989         0.880967
 H        -0.541238         0.638650        -0.590741
 H         2.145042        -0.268669         2.021787
 H         1.342824        -1.795469         1.247907
 H         4.333974        -0.787570         2.487286
 H         5.247307        -1.414261         0.967797
 H         5.655085         1.067877         0.783080
 H         4.325760         2.086693        -0.563033
 H         2.006919         2.031501        -1.122035
