19
Iteration:  4110charge 0 multiplicity 1
 C         0.244259         0.557485         0.442538
 C         1.589137        -0.056999        -0.010661
 C         2.080077        -1.068099         0.959203
 O         3.404498        -1.515057         0.836897
 C         4.358756        -0.599505         1.434223
 C         4.582262         0.567487         0.577288
 C         3.883686         1.086890        -0.430098
 C         2.416072         0.959773        -0.788979
 O         1.799483        -0.173134        -1.428966
 H        -0.215447         1.338116        -0.252274
 H        -0.545751        -0.179773         0.428439
 H         0.355183         0.828759         1.472970
 H         1.863784        -0.791598         2.017846
 H         1.539130        -2.019635         0.667182
 H         3.910747        -0.094035         2.374757
 H         5.266419        -1.108178         1.630294
 H         5.499092         1.126074         0.845891
 H         4.226188         2.099241        -0.788384
 H         1.932167         1.912840        -1.100303
