19
Iteration:  4697
 C         0.209871         0.552804         0.307921
 C         1.593549         0.059731         0.032301
 C         2.127283        -0.969606         1.056627
 O         3.354556        -1.578655         0.689189
 C         4.373614        -0.729839         1.202295
 C         4.587289         0.658349         0.663606
 C         3.804516         1.285491        -0.231367
 C         2.437234         0.903583        -0.716784
 O         1.862088        -0.311493        -1.315858
 H        -0.471911        -0.125992        -0.277603
 H         0.007695         0.666952         1.346590
 H        -0.022742         1.598848        -0.111762
 H         1.928979        -0.690181         2.109125
 H         1.337685        -1.815606         0.970746
 H         4.080451        -0.726160         2.247762
 H         5.270307        -1.333199         1.146980
 H         5.656175         1.085420         0.945996
 H         4.080010         2.218816        -0.731969
 H         2.012826         1.703165        -1.362223
