19
Iteration:   905charge 0 multiplicity 1
 C         0.041707         0.568021         0.089088
 C         1.475975        -0.029492         0.102582
 C         1.996836        -0.954403         1.200548
 O         3.329256        -1.371166         1.088320
 C         4.509337        -0.457897         1.280675
 C         4.741536         0.514787         0.204430
 C         3.901357         1.171377        -0.522121
 C         2.419262         0.858892        -0.633518
 O         1.946589        -0.477094        -1.175836
 H        -0.084536         1.313756         0.972359
 H        -0.129614         1.245023        -0.795666
 H        -0.792595        -0.212831         0.072848
 H         1.727995        -0.582422         2.192593
 H         1.522315        -1.899253         1.049897
 H         4.386622         0.116812         2.292674
 H         5.303770        -1.287305         1.363348
 H         5.797513         0.773479         0.016820
 H         4.029886         1.917722        -1.267444
 H         1.742564         1.595452        -1.106760
