19
Iteration:  2044
 C         0.056296         0.201673         0.183766
 C         1.550075        -0.017204         0.013307
 C         2.032219        -0.674063         1.278957
 O         3.322683        -1.447750         1.199238
 C         4.508006        -0.599803         1.288887
 C         4.688798         0.443326         0.303665
 C         3.859075         1.039600        -0.539936
 C         2.329062         1.028627        -0.706130
 O         1.956636        -0.180229        -1.433296
 H        -0.238663         0.636734         1.246821
 H        -0.403105         0.834175        -0.600648
 H        -0.492067        -0.649770         0.236879
 H         2.223872         0.173346         2.009238
 H         1.180720        -1.269827         1.704179
 H         4.647351        -0.243068         2.337837
 H         5.338000        -1.347050         1.123591
 H         5.752089         0.710464         0.150949
 H         4.366108         1.619482        -1.270407
 H         1.818973         1.987958        -1.023162
