19
Iteration:  4296
 C         0.153910         0.506897         0.328368
 C         1.548329         0.004378        -0.016050
 C         2.127068        -0.905131         0.975472
 O         3.358913        -1.483344         0.668838
 C         4.423719        -0.778914         1.217186
 C         4.553763         0.589462         0.666172
 C         3.848613         1.200062        -0.273782
 C         2.433995         0.992014        -0.628495
 O         1.889196        -0.285966        -1.293336
 H        -0.282420        -0.158161         1.092665
 H        -0.043436         1.487424         0.615815
 H        -0.338647         0.396850        -0.682072
 H         2.041141        -0.422309         1.951098
 H         1.350824        -1.829193         1.073764
 H         4.392566        -0.841945         2.362428
 H         5.209775        -1.353755         0.810891
 H         5.304318         1.128835         1.263227
 H         4.291086         2.121673        -0.546862
 H         1.978627         1.942741        -1.146930
