19
Iteration:  3500charge 0 multiplicity 1
 C         0.062389         0.561392         0.411555
 C         1.488706         0.030025        -0.008247
 C         2.113679        -0.999457         1.020673
 O         3.401246        -1.472285         0.798548
 C         4.486295        -0.652451         1.239450
 C         4.587249         0.620836         0.610596
 C         3.849053         1.144621        -0.317043
 C         2.449828         0.912762        -0.691715
 O         1.844198        -0.311322        -1.413648
 H        -0.096582         1.581255         0.015821
 H        -0.876864         0.009935        -0.021087
 H        -0.048946         0.455845         1.482383
 H         2.135944        -0.447302         1.910698
 H         1.473714        -1.928542         1.163228
 H         4.485593        -0.633797         2.331366
 H         5.414694        -1.293384         1.037781
 H         5.637848         1.048809         0.648002
 H         4.343036         1.973975        -0.787704
 H         2.099701         1.825553        -1.092682
