19
Iteration:  4948charge 0 multiplicity 1
 C         0.134617         0.455816         0.274604
 C         1.525686        -0.022273         0.016107
 C         2.055449        -1.098896         1.045306
 O         3.370346        -1.583740         0.758846
 C         4.348135        -0.661277         1.261351
 C         4.672812         0.591096         0.523737
 C         3.903132         1.278846        -0.328959
 C         2.443506         0.979495        -0.610840
 O         1.900722        -0.113284        -1.342797
 H         0.049516         0.901607         1.254181
 H        -0.148779         1.198288        -0.398667
 H        -0.664453        -0.311540         0.199965
 H         1.865882        -0.678542         2.128192
 H         1.468526        -2.036925         0.911146
 H         4.065929        -0.463412         2.348902
 H         5.174525        -1.371640         1.370324
 H         5.617479         0.925914         0.844466
 H         4.330928         2.212602        -0.651361
 H         1.852061         1.972710        -0.813281
