19
Iteration:   363
 C         0.049422         0.310912         0.244430
 C         1.527279         0.036760         0.152185
 C         2.080442        -0.843468         1.217862
 O         3.380625        -1.259264         0.953087
 C         4.415956        -0.413157         1.396853
 C         4.792192         0.431619         0.304215
 C         3.932134         0.900113        -0.630786
 C         2.445125         0.846571        -0.737462
 O         1.739445        -0.262668        -1.282281
 H        -0.305030         0.844646         1.090137
 H        -0.221965         0.893052        -0.751569
 H        -0.579393        -0.534407         0.157056
 H         2.078928        -0.293357         2.262831
 H         1.442104        -1.704116         1.340417
 H         4.182644         0.257744         2.311433
 H         5.329205        -1.163650         1.677696
 H         5.796798         0.892633         0.330918
 H         4.368918         1.614454        -1.436005
 H         2.019047         1.783002        -1.044410
