19
Iteration:  4261charge 0 multiplicity 1
 C        -0.011647         0.366521         0.335413
 C         1.466947         0.010002        -0.071141
 C         2.125470        -0.954042         1.039462
 O         3.372392        -1.533215         0.889047
 C         4.487954        -0.784054         1.297905
 C         4.696049         0.479198         0.535298
 C         3.876000         1.205269        -0.278118
 C         2.434635         1.062171        -0.688266
 O         1.867206        -0.060937        -1.470377
 H        -0.611695        -0.568695         0.593305
 H         0.003833         1.100154         1.148693
 H        -0.545951         0.664522        -0.544316
 H         2.223404        -0.294005         1.940250
 H         1.400536        -1.833443         1.331700
 H         4.544741        -0.528225         2.423892
 H         5.441727        -1.323907         1.298316
 H         5.561785         0.931824         0.874419
 H         4.188918         2.191797        -0.698214
 H         1.998331         2.017468        -1.087640
