19
Iteration:  1335charge 0 multiplicity 1
 C         0.151295         0.539393         0.249905
 C         1.495253        -0.062941         0.134208
 C         1.972385        -1.008480         1.186943
 O         3.331405        -1.393751         1.080621
 C         4.335787        -0.360652         1.392657
 C         4.719867         0.564215         0.220545
 C         3.908391         1.094583        -0.648721
 C         2.442037         0.843618        -0.739968
 O         1.963592        -0.406340        -1.275709
 H        -0.001732         0.967540         1.292088
 H         0.118145         1.379955        -0.515249
 H        -0.652529        -0.100013        -0.023064
 H         1.694764        -0.853009         2.252189
 H         1.356395        -1.954397         1.026868
 H         4.079576         0.214157         2.252733
 H         5.337636        -0.920690         1.566024
 H         5.790592         0.710947         0.264888
 H         4.292344         1.826305        -1.265137
 H         1.911546         1.678437        -1.233570
