19
Iteration:  2276charge 0 multiplicity 1
 C         0.031007         0.367139         0.317696
 C         1.468985         0.063332         0.021636
 C         2.067628        -0.900098         1.124969
 O         3.396485        -1.437286         1.102901
 C         4.374452        -0.398587         1.401940
 C         4.795572         0.535351         0.350049
 C         3.978353         1.023629        -0.669233
 C         2.458468         0.831638        -0.760073
 O         1.754882        -0.306467        -1.362361
 H         0.045479         0.523632         1.509829
 H        -0.262975         1.384366        -0.132707
 H        -0.566334        -0.414126         0.089705
 H         1.937962        -0.407453         2.125759
 H         1.462080        -1.818988         1.116731
 H         3.985449         0.256278         2.170417
 H         5.318853        -0.801937         1.809085
 H         5.828288         0.731228         0.478124
 H         4.434640         1.735871        -1.376630
 H         2.242345         1.906723        -1.048436
