19
Iteration:   830
 C         0.076945         0.291699         0.325115
 C         1.581894         0.065733         0.015400
 C         2.022591        -0.836705         1.125116
 O         3.341448        -1.347006         1.137135
 C         4.367462        -0.465024         1.494752
 C         4.741747         0.417817         0.249282
 C         3.950892         1.042294        -0.652937
 C         2.414699         0.911611        -0.811342
 O         1.849755        -0.274706        -1.337692
 H        -0.050359         0.466862         1.443055
 H        -0.207383         1.212804        -0.165023
 H        -0.541253        -0.607702         0.119409
 H         1.836264        -0.249687         2.126073
 H         1.513986        -1.817835         1.056784
 H         4.163310         0.121666         2.344463
 H         5.225167        -1.220172         1.682719
 H         5.820430         0.691219         0.262759
 H         4.395191         1.906825        -1.410662
 H         1.855388         1.786210        -1.156995
