19
Iteration:  3757charge 0 multiplicity 1
 C        -0.008414         0.307735         0.297126
 C         1.530695         0.052070        -0.023302
 C         2.106049        -0.919446         1.133660
 O         3.362471        -1.485811         0.862910
 C         4.443027        -0.679847         1.342585
 C         4.646424         0.443553         0.336469
 C         3.813476         1.167415        -0.400710
 C         2.408114         1.070379        -0.591717
 O         1.987320        -0.107218        -1.331469
 H        -0.461013         1.038809        -0.269209
 H        -0.510011        -0.614892        -0.057855
 H         0.005061         0.344806         1.377072
 H         2.125183        -0.333002         2.089387
 H         1.386579        -1.743687         1.225353
 H         4.165872        -0.300914         2.383208
 H         5.245024        -1.426870         1.214850
 H         5.744031         0.663090         0.209834
 H         4.369327         1.915067        -0.929794
 H         2.007458         2.120495        -0.841589
