19
Iteration:   501charge 0 multiplicity 1
 C         0.003559         0.460880         0.168435
 C         1.451140        -0.013935         0.079021
 C         2.017486        -0.816841         1.247778
 O         3.360933        -1.309528         0.838877
 C         4.488043        -0.544329         1.355589
 C         4.857361         0.568576         0.363652
 C         3.936648         1.098091        -0.528712
 C         2.465707         0.835736        -0.651229
 O         1.768534        -0.468823        -1.210060
 H        -0.062433         1.357891         0.716376
 H        -0.188702         0.555191        -0.922012
 H        -0.660939        -0.278468         0.575446
 H         2.022274        -0.162154         2.141270
 H         1.419262        -1.778141         1.332175
 H         4.296097        -0.065011         2.405577
 H         5.222990        -1.250572         1.416853
 H         5.869875         1.067123         0.351286
 H         4.265598         1.764028        -1.231235
 H         2.047444         1.651146        -1.220250
