19
Iteration:   269charge 0 multiplicity 1
 C        -0.003573         0.496811         0.176170
 C         1.468984         0.032429         0.117094
 C         2.104368        -0.838233         1.275473
 O         3.375624        -1.363561         0.919545
 C         4.500338        -0.568843         1.315309
 C         4.690323         0.616311         0.368281
 C         3.883267         1.010872        -0.584733
 C         2.414133         0.838802        -0.702557
 O         1.902840        -0.429095        -1.256957
 H        -0.129909         1.429687         0.842257
 H        -0.384194         0.748208        -0.735732
 H        -0.814177        -0.196238         0.580500
 H         2.085722        -0.124389         2.198003
 H         1.403577        -1.711207         1.592662
 H         4.419444        -0.409291         2.444673
 H         5.348574        -1.193220         1.177164
 H         5.714323         0.987424         0.273066
 H         4.235209         1.788995        -1.332639
 H         1.919467         1.768487        -1.182407
