19
Iteration:  2315
 C         0.242170         0.520270         0.318330
 C         1.590064        -0.000822        -0.019601
 C         2.044303        -0.808923         1.162205
 O         3.376053        -1.466817         1.083288
 C         4.445640        -0.511763         1.312716
 C         4.537187         0.572380         0.435039
 C         3.795692         1.103903        -0.529889
 C         2.404716         0.871625        -0.838234
 O         1.889533        -0.451079        -1.345377
 H         0.162847         1.040364         1.226651
 H        -0.099024         1.338325        -0.303359
 H        -0.597518        -0.344783         0.417926
 H         1.891236        -0.384382         2.141724
 H         1.339797        -1.658964         1.109800
 H         4.344618        -0.192766         2.341959
 H         5.338133        -1.121681         1.354753
 H         5.538598         1.126904         0.201836
 H         4.369354         1.767640        -1.200371
 H         1.691396         1.616840        -1.145796
