19
Iteration:  4088charge 0 multiplicity 1
 C         0.195430         0.656293         0.478898
 C         1.532031        -0.038425         0.068413
 C         1.992325        -1.154594         0.885711
 O         3.395632        -1.508107         0.736419
 C         4.236138        -0.572455         1.380161
 C         4.653158         0.681326         0.535206
 C         3.880997         1.248975        -0.408703
 C         2.463539         0.872099        -0.657102
 O         1.962616        -0.331103        -1.351957
 H         0.023576         1.626052        -0.087592
 H        -0.697582         0.099999         0.179492
 H         0.150751         0.739146         1.542875
 H         1.953535        -0.832841         1.952689
 H         1.484979        -2.138411         0.716022
 H         3.817533        -0.192039         2.437127
 H         5.165551        -1.065711         1.510030
 H         5.702715         0.876130         0.613612
 H         4.260994         1.741570        -1.344017
 H         1.911462         1.721498        -1.031805
