19
Iteration:  2567charge 0 multiplicity 1
 C         0.126726         0.451581         0.308091
 C         1.547171         0.076574         0.021300
 C         2.090899        -0.960820         1.116305
 O         3.336961        -1.536746         1.076938
 C         4.410700        -0.620393         1.273870
 C         4.645285         0.521119         0.362606
 C         3.779403         1.227839        -0.443651
 C         2.381614         0.976643        -0.741859
 O         1.976226        -0.279388        -1.376747
 H        -0.365678        -0.322133         0.811667
 H         0.035127         1.387704         0.940118
 H        -0.452530         0.485108        -0.635452
 H         1.947101        -0.413910         2.113825
 H         1.386775        -1.845836         1.152235
 H         4.391121        -0.288884         2.371176
 H         5.424219        -1.196038         1.161529
 H         5.705824         0.883356         0.487389
 H         4.246867         1.970788        -1.066089
 H         1.834156         1.795312        -1.260966
