19
Iteration:  4800charge 0 multiplicity 1
 C         0.099118         0.122759         0.172742
 C         1.532572         0.096428        -0.001134
 C         2.021658        -1.023897         1.063852
 O         3.304085        -1.612356         0.965725
 C         4.379505        -0.752468         1.311671
 C         4.688105         0.446319         0.322763
 C         3.901398         1.275723        -0.362183
 C         2.427081         1.223244        -0.417113
 O         1.991206         0.106639        -1.379244
 H        -0.248902         0.263919         1.227076
 H        -0.359317         1.069707        -0.262926
 H        -0.451970        -0.651626        -0.317062
 H         1.980559        -0.397294         2.029485
 H         1.346072        -1.851280         0.992150
 H         4.121924        -0.396293         2.321451
 H         5.237280        -1.475396         1.312273
 H         5.712329         0.390145         0.066031
 H         4.353314         1.857999        -1.170849
 H         1.939764         2.107587        -0.628207
