19
Iteration:   135charge 0 multiplicity 1
 C        -0.003906         0.224138         0.130877
 C         1.511140         0.089555         0.046899
 C         2.077091        -0.518022         1.354400
 O         3.196209        -1.214553         0.971386
 C         4.484489        -0.750455         1.070563
 C         4.724522         0.467285         0.347907
 C         3.805548         1.132289        -0.431535
 C         2.469751         0.869797        -0.739730
 O         2.032544        -0.469913        -1.124867
 H        -0.273390         0.428376         1.121418
 H        -0.278573         1.175146        -0.452688
 H        -0.481581        -0.634407        -0.229376
 H         2.119371         0.285258         2.155061
 H         1.331316        -1.207041         1.807966
 H         4.889822        -0.742420         2.124793
 H         5.079065        -1.481639         0.582181
 H         5.780425         0.899072         0.417787
 H         4.323429         1.954359        -1.017274
 H         1.968587         1.570987        -1.359642
