19
Iteration:  3376
 C        -0.089213         0.261247         0.180819
 C         1.493593         0.119720         0.090911
 C         2.061136        -0.904635         1.121972
 O         3.363158        -1.504347         0.894438
 C         4.509393        -0.775540         1.149102
 C         4.768171         0.471236         0.330329
 C         3.836668         1.229995        -0.308761
 C         2.452483         1.095301        -0.567720
 O         1.944184        -0.151335        -1.269897
 H        -0.609279         0.287054        -0.914374
 H        -0.579746        -0.549706         0.740508
 H        -0.394207         1.319635         0.589485
 H         2.171204        -0.441714         2.076313
 H         1.342270        -1.709882         1.126829
 H         4.490328        -0.402010         2.336071
 H         5.293913        -1.552109         1.049446
 H         5.705520         0.852005         0.584627
 H         4.226429         2.203428        -0.776547
 H         1.998374         1.989805        -0.727584
