19
Iteration:  2392charge 0 multiplicity 1
 C        -0.062251         0.256239         0.122485
 C         1.442923         0.078413         0.023877
 C         2.089895        -0.687075         1.361658
 O         3.277180        -1.345545         0.997002
 C         4.538167        -0.709586         1.193092
 C         4.743595         0.445968         0.296625
 C         3.875875         1.135368        -0.414930
 C         2.420404         0.925995        -0.703814
 O         1.979705        -0.295287        -1.270819
 H        -0.456131         1.251288         0.118016
 H        -0.546526        -0.205889        -0.786465
 H        -0.556194        -0.258904         1.041425
 H         2.367042         0.129148         2.002896
 H         1.519872        -1.410066         1.957934
 H         4.557036        -0.337055         2.252630
 H         5.289737        -1.570421         1.211519
 H         5.798712         1.014768         0.330083
 H         4.309139         1.999696        -0.938686
 H         1.967874         1.767860        -1.315964
