19
Iteration:  1480charge 0 multiplicity 1
 C         0.019206         0.291119         0.120165
 C         1.518461         0.071736         0.121892
 C         2.067390        -0.666795         1.343076
 O         3.180955        -1.406386         1.055255
 C         4.424132        -0.633196         1.219519
 C         4.727258         0.522341         0.297643
 C         3.875207         1.191041        -0.540806
 C         2.426764         0.882878        -0.795693
 O         2.067010        -0.397454        -1.218984
 H        -0.230917         0.858355         1.037615
 H        -0.548927         0.807284        -0.608561
 H        -0.611810        -0.680065         0.129701
 H         2.244913         0.032043         2.152178
 H         1.379819        -1.378865         1.822748
 H         4.551774        -0.235491         2.241143
 H         5.364188        -1.277080         0.931787
 H         5.814980         0.696933         0.199097
 H         4.455553         1.937363        -1.189239
 H         1.855672         1.659735        -1.241684
