19
Iteration:  3919
 C         0.053642         0.527685         0.223025
 C         1.516397         0.001018         0.063520
 C         2.083148        -0.895207         1.140609
 O         3.321462        -1.414720         0.617091
 C         4.393164        -0.690730         1.181159
 C         4.751617         0.588688         0.518059
 C         3.874212         1.253193        -0.248387
 C         2.433229         0.855955        -0.593743
 O         1.922650        -0.398529        -1.248571
 H        -0.289256         1.159858        -0.543332
 H        -0.692574        -0.295664         0.103209
 H        -0.202623         0.900291         1.229057
 H         2.266546        -0.425870         2.179641
 H         1.533320        -1.913001         1.432530
 H         4.117129        -0.408380         2.202241
 H         5.273030        -1.363166         1.089397
 H         5.710701         1.129547         0.831967
 H         4.114713         2.185443        -0.764713
 H         1.945489         1.821244        -1.038287
