19
Iteration:  3595charge 0 multiplicity 1
 C         0.120150         0.284913         0.164393
 C         1.645582         0.046815         0.123435
 C         2.068250        -1.055660         1.043847
 O         3.338408        -1.583005         1.118639
 C         4.446395        -0.686021         1.228073
 C         4.673413         0.353389         0.161744
 C         3.769988         1.289127        -0.297829
 C         2.387868         1.101160        -0.533136
 O         1.896662         0.031717        -1.373084
 H        -0.180030         0.658366        -0.886767
 H        -0.573443        -0.407032         0.329675
 H        -0.188858         0.926992         1.004000
 H         1.919741        -0.590745         2.034369
 H         1.452408        -1.882576         0.942613
 H         4.242672         0.131586         2.103379
 H         5.304321        -1.216600         1.575187
 H         5.761339         0.571364         0.006721
 H         4.188717         2.047005        -0.896244
 H         1.918805         2.050535        -0.784492
