19
Iteration:  3446charge 0 multiplicity 1
 C         0.034610         0.344303         0.240488
 C         1.536942         0.064741         0.115958
 C         2.073487        -0.946335         1.121521
 O         3.258511        -1.605964         0.870214
 C         4.444655        -0.725257         1.180972
 C         4.685287         0.535185         0.321065
 C         3.885988         1.394616        -0.316324
 C         2.421406         1.067676        -0.642374
 O         1.993156        -0.226620        -1.265994
 H        -0.450152         0.827733        -0.523713
 H        -0.503977        -0.606124         0.401266
 H        -0.138542         0.938288         1.083724
 H         2.059201        -0.506242         2.135578
 H         1.292529        -1.792811         1.078129
 H         4.280497        -0.329207         2.283880
 H         5.357592        -1.495848         1.093890
 H         5.778206         0.805542         0.435151
 H         4.384578         2.218958        -0.760005
 H         1.871101         1.912940        -1.114357
