19
Iteration:  3558charge 0 multiplicity 1
 C        -0.033072         0.324907         0.251604
 C         1.483167         0.058265         0.088216
 C         1.987756        -1.026413         1.053248
 O         3.308792        -1.483582         0.838327
 C         4.413578        -0.643734         1.261789
 C         4.782153         0.565562         0.353984
 C         3.919646         1.179522        -0.455409
 C         2.445827         1.049863        -0.471682
 O         2.019734        -0.156620        -1.240815
 H        -0.234181         1.148139        -0.286440
 H        -0.553292        -0.604474         0.027508
 H        -0.108189         0.736368         1.234775
 H         1.860233        -0.639160         2.002226
 H         1.274108        -1.895999         1.015520
 H         4.157166        -0.296860         2.287547
 H         5.332023        -1.428478         1.292821
 H         5.791308         0.827372         0.120892
 H         4.299840         1.768987        -1.336922
 H         1.884856         2.008003        -0.858162
