19
Iteration:   127charge 0 multiplicity 1
 C         0.044907         0.210549         0.146590
 C         1.491115         0.095668         0.102909
 C         2.058204        -0.465245         1.312269
 O         3.155822        -1.245412         0.926888
 C         4.461688        -0.729492         1.118278
 C         4.762829         0.530053         0.386788
 C         3.920846         1.128708        -0.406511
 C         2.455926         0.850731        -0.755548
 O         1.955693        -0.480033        -1.141201
 H        -0.255822         0.306714         1.265839
 H        -0.455196         0.879691        -0.503107
 H        -0.285542        -0.833943        -0.190452
 H         2.351669         0.289240         2.034601
 H         1.323207        -1.199686         1.752664
 H         4.793694        -0.795920         2.132476
 H         5.142039        -1.502959         0.464292
 H         5.853725         0.797529         0.259889
 H         4.230262         2.032733        -1.077287
 H         2.109474         1.657069        -1.517259
