19
Iteration:   538
 C         0.084529         0.418533         0.169662
 C         1.582814         0.095277         0.144491
 C         1.985183        -0.838956         1.224750
 O         3.280453        -1.411368         0.977617
 C         4.402446        -0.569497         1.254973
 C         4.694336         0.522337         0.253475
 C         3.806870         1.205328        -0.564404
 C         2.413486         0.916890        -0.718014
 O         2.064137        -0.451941        -1.100886
 H        -0.229495         1.347863         0.767989
 H        -0.323109         0.711513        -0.837962
 H        -0.537592        -0.441679         0.525239
 H         1.974334        -0.496065         2.258822
 H         1.247691        -1.681256         1.119622
 H         4.281822        -0.229888         2.347619
 H         5.381268        -1.161197         1.318447
 H         5.753345         0.742803         0.122281
 H         4.356329         1.840992        -1.362759
 H         1.894529         1.649285        -1.416453
