19
Iteration:  4507charge 0 multiplicity 1
 C         0.171964         0.503829         0.520224
 C         1.540003         0.048217        -0.017329
 C         2.091517        -1.069583         0.851968
 O         3.380890        -1.463518         0.682240
 C         4.338890        -0.636513         1.423189
 C         4.605340         0.585432         0.699676
 C         3.900013         1.122587        -0.359175
 C         2.418317         0.944235        -0.687772
 O         1.870272        -0.207791        -1.469683
 H        -0.326669        -0.263270         1.046876
 H         0.196374         1.379592         1.193660
 H        -0.478663         0.802917        -0.234706
 H         1.848769        -0.814664         1.889722
 H         1.377094        -2.007757         0.878281
 H         4.048058        -0.442412         2.577726
 H         5.248077        -1.129234         1.334970
 H         5.584833         0.966361         0.914244
 H         4.501018         1.763394        -1.051593
 H         2.134772         1.979150        -1.097990
