19
Iteration:  1625charge 0 multiplicity 1
 C         0.053984         0.364666         0.131420
 C         1.495003         0.033162         0.014678
 C         2.102054        -0.740542         1.329682
 O         3.379506        -1.334791         1.049200
 C         4.466371        -0.636454         1.327892
 C         4.763066         0.498817         0.331126
 C         3.796709         1.048952        -0.486643
 C         2.388294         0.905601        -0.732116
 O         1.880681        -0.309153        -1.333808
 H        -0.239011         1.312794         0.522867
 H        -0.537928         0.170282        -0.819676
 H        -0.627371        -0.427348         0.683100
 H         2.097601         0.086116         2.068427
 H         1.396124        -1.508726         1.669552
 H         4.488120        -0.350308         2.446130
 H         5.382511        -1.347146         1.241700
 H         5.841821         0.783529         0.112865
 H         4.212710         1.609954        -1.233467
 H         1.982514         1.756558        -1.088257
