19
Iteration:  4831
 C         0.015400         0.276933         0.179691
 C         1.470209         0.081907         0.105964
 C         1.985759        -1.136712         0.987627
 O         3.328064        -1.531213         0.836189
 C         4.383487        -0.674513         1.250073
 C         4.804808         0.416981         0.302617
 C         3.879392         1.255560        -0.274160
 C         2.464849         1.076712        -0.453314
 O         2.008055         0.027994        -1.273706
 H        -0.268586         1.125340         0.970235
 H        -0.265267         0.749745        -0.800555
 H        -0.548603        -0.680647         0.276519
 H         1.758121        -0.801851         2.059833
 H         1.315503        -2.033713         0.786975
 H         4.018999        -0.119969         2.194077
 H         5.322313        -1.094412         1.674105
 H         5.813816         0.695645         0.261208
 H         4.275601         2.118437        -0.808792
 H         2.103658         2.006476        -0.757382
