19
Iteration:  4410
 C         0.032395         0.045389         0.172288
 C         1.527150         0.073295         0.035699
 C         2.017308        -0.886189         1.009777
 O         3.255362        -1.517188         0.876267
 C         4.472831        -0.753081         1.320259
 C         4.813000         0.322567         0.377711
 C         3.955720         1.199248        -0.241897
 C         2.415737         1.163015        -0.478049
 O         1.852244         0.149050        -1.421766
 H        -0.287113        -0.637164         0.938267
 H        -0.293900         1.033889         0.657544
 H        -0.412860         0.000628        -0.769700
 H         1.892231        -0.430199         1.999926
 H         1.343786        -1.705340         1.276289
 H         4.417093        -0.273498         2.293786
 H         5.330467        -1.412777         1.316334
 H         5.858116         0.635173         0.246452
 H         4.543929         1.989058        -0.784552
 H         2.017543         2.201461        -0.763417
