19
Iteration:  4502
 C         0.172247         0.534578         0.484452
 C         1.520070         0.043449        -0.013667
 C         2.070175        -1.147269         0.852051
 O         3.390444        -1.469456         0.673920
 C         4.311382        -0.648411         1.407879
 C         4.616429         0.630654         0.672948
 C         3.913244         1.145623        -0.352929
 C         2.440408         0.967239        -0.684730
 O         1.890197        -0.230833        -1.419216
 H        -0.260374        -0.204873         1.273262
 H         0.216136         1.400462         1.160929
 H        -0.654125         0.889188        -0.262149
 H         1.880882        -0.732818         1.891220
 H         1.351904        -1.908975         0.814568
 H         4.026840        -0.564462         2.424512
 H         5.292224        -1.318350         1.544695
 H         5.637930         1.073766         0.861754
 H         4.384296         1.878835        -1.025275
 H         2.053213         1.851712        -1.129421
