19
Iteration:   844charge 0 multiplicity 1
 C         0.110773         0.196491         0.419480
 C         1.556159         0.116598        -0.014609
 C         2.057077        -0.780412         1.147852
 O         3.295231        -1.374938         1.139744
 C         4.372251        -0.473425         1.424897
 C         4.716454         0.484805         0.312957
 C         3.928122         0.927236        -0.607463
 C         2.469599         0.974401        -0.870809
 O         1.840403        -0.231109        -1.391078
 H         0.056156         0.308965         1.488813
 H        -0.523017         0.852956        -0.080303
 H        -0.256199        -0.790087         0.167531
 H         1.882245        -0.233587         2.120977
 H         1.186764        -1.528901         1.149929
 H         4.066715         0.089196         2.342471
 H         5.227896        -1.022165         1.753026
 H         5.818049         0.674366         0.242638
 H         4.597223         1.514113        -1.492866
 H         2.191060         1.959006        -1.381061
