19
Iteration:  4997charge 0 multiplicity 1
 C        -0.012481         0.149489         0.099697
 C         1.486597         0.077101         0.180532
 C         1.992586        -1.134558         1.027875
 O         3.263920        -1.387574         0.835012
 C         4.419909        -0.654987         1.268137
 C         4.774597         0.331806         0.205977
 C         3.876432         1.202364        -0.317279
 C         2.457068         1.180431        -0.437445
 O         2.068054         0.065394        -1.197897
 H        -0.654736         0.172482         0.998265
 H        -0.117997         1.237791        -0.311250
 H        -0.487760        -0.553753        -0.568070
 H         1.833915        -0.686284         2.087720
 H         1.500139        -2.216352         1.022327
 H         4.147625        -0.241539         2.228074
 H         5.093351        -1.478064         1.548321
 H         5.921111         0.531895         0.122297
 H         4.412563         1.968021        -0.890415
 H         2.052709         2.087625        -0.719628
