19
Iteration:  1964charge 0 multiplicity 1
 C         0.059652         0.448536         0.103306
 C         1.517264         0.056667         0.065062
 C         2.046343        -0.710595         1.283968
 O         3.229128        -1.435726         0.989913
 C         4.410708        -0.692139         1.191315
 C         4.649460         0.670499         0.310462
 C         3.763926         1.207421        -0.517612
 C         2.418953         0.880854        -0.750990
 O         2.155028        -0.527163        -1.053217
 H         0.017965         0.929243         1.096146
 H        -0.115412         1.294926        -0.528880
 H        -0.708745        -0.370736         0.107632
 H         2.274664        -0.250530         2.256604
 H         1.381875        -1.651742         1.491947
 H         4.731293        -0.570215         2.191978
 H         5.146593        -1.359303         0.828157
 H         5.659657         0.994499         0.189275
 H         4.217928         1.986315        -1.236963
 H         1.796863         1.533947        -1.558494
