19
Iteration:  4625
 C        -0.014636         0.193005         0.079863
 C         1.535632         0.078297         0.095995
 C         2.054754        -0.993872         1.189976
 O         3.299107        -1.526086         0.903798
 C         4.363421        -0.647582         1.212727
 C         4.787842         0.386271         0.250068
 C         3.928526         1.218401        -0.410002
 C         2.465873         1.125326        -0.485610
 O         1.971523        -0.020642        -1.224088
 H        -0.468161        -0.101825        -0.902556
 H        -0.574842        -0.320391         0.962438
 H        -0.294214         1.243710         0.312655
 H         1.914671        -0.677216         2.272596
 H         1.316872        -1.795238         1.103589
 H         3.949679        -0.002830         2.010335
 H         5.137422        -1.324483         1.714434
 H         5.777434         0.659288         0.176925
 H         4.389923         2.127302        -0.888458
 H         2.016083         2.096908        -0.794628
