19
Iteration:  3808
 C        -0.118856         0.246423         0.075325
 C         1.438268         0.093931         0.204379
 C         2.009652        -0.972573         1.189586
 O         3.318992        -1.429344         0.871964
 C         4.459055        -0.679530         1.151412
 C         4.806456         0.417631         0.197905
 C         3.940514         1.267411        -0.391182
 C         2.411229         1.083716        -0.483474
 O         2.040705        -0.150638        -1.149592
 H        -0.130129         0.651910        -0.979550
 H        -0.680115        -0.825103         0.124545
 H        -0.488762         0.921234         0.871296
 H         1.906674        -0.591498         2.246828
 H         1.329933        -1.893857         1.017686
 H         4.475955        -0.218530         2.200025
 H         5.272340        -1.390651         1.301915
 H         5.821813         0.588452         0.192379
 H         4.459271         2.063240        -0.965462
 H         1.870504         1.970057        -0.849823
