19
Iteration:  4389
 C        -0.060369         0.110931         0.154959
 C         1.503261         0.087810        -0.039157
 C         2.122374        -0.870204         1.084877
 O         3.300910        -1.548114         0.942238
 C         4.483343        -0.851323         1.272441
 C         4.733992         0.396075         0.434538
 C         3.902833         1.166569        -0.350462
 C         2.426742         1.164133        -0.482424
 O         1.904813         0.181002        -1.387677
 H        -0.207674        -0.746287         0.847121
 H        -0.610573         1.040902         0.588236
 H        -0.416702        -0.094436        -0.829229
 H         2.070015        -0.391141         2.104078
 H         1.462491        -1.685982         1.219295
 H         4.329151        -0.504008         2.357211
 H         5.402490        -1.535941         1.087727
 H         5.795377         0.653385         0.405715
 H         4.478598         2.007550        -0.794679
 H         2.002022         2.167252        -0.720783
