19
Iteration:   637charge 0 multiplicity 1
 C         0.007193         0.289574         0.146785
 C         1.529373         0.055316         0.104219
 C         2.002935        -0.722605         1.340035
 O         3.176247        -1.330194         0.888493
 C         4.419619        -0.592821         1.269516
 C         4.795602         0.513130         0.281060
 C         3.933912         1.170100        -0.558655
 C         2.479184         0.913762        -0.774493
 O         2.005325        -0.461600        -1.108922
 H        -0.417543         0.486279         1.224777
 H        -0.382134         1.082419        -0.449191
 H        -0.593728        -0.614874        -0.227419
 H         2.380357        -0.091988         2.176241
 H         1.348408        -1.607358         1.687071
 H         4.194823        -0.088973         2.240215
 H         5.203564        -1.329820         1.353100
 H         5.826638         0.886407         0.364878
 H         4.488691         2.079145        -1.150066
 H         1.976446         1.817055        -1.353267
