19
Iteration:  3371charge 0 multiplicity 1
 C        -0.061901         0.303641         0.213974
 C         1.537776         0.097214         0.077558
 C         2.055932        -0.903647         1.103181
 O         3.369881        -1.516069         0.898163
 C         4.476434        -0.799372         1.174003
 C         4.714017         0.483340         0.353241
 C         3.818502         1.276701        -0.322277
 C         2.440365         1.084724        -0.574408
 O         1.969813        -0.175854        -1.289137
 H        -0.502829         0.320519        -0.710013
 H        -0.526170        -0.528878         0.780720
 H        -0.392026         1.250914         0.592705
 H         1.975122        -0.417640         2.146064
 H         1.361092        -1.778582         1.162591
 H         4.544784        -0.513532         2.179180
 H         5.308489        -1.487934         0.952206
 H         5.796566         0.904025         0.503872
 H         4.227045         2.145423        -0.751137
 H         1.948177         2.137908        -0.866193
