19
Iteration:  3379charge 0 multiplicity 1
 C        -0.109599         0.253759         0.144102
 C         1.462014         0.122267         0.092211
 C         2.076277        -0.899118         1.129316
 O         3.341985        -1.501352         0.884464
 C         4.529554        -0.743484         1.150095
 C         4.788553         0.459798         0.321433
 C         3.884718         1.207419        -0.299637
 C         2.435018         1.074883        -0.556112
 O         1.927390        -0.123636        -1.251687
 H        -0.523799         0.224357        -0.854368
 H        -0.581280        -0.523717         0.719437
 H        -0.333353         1.166867         0.578437
 H         2.252539        -0.403604         2.133294
 H         1.297859        -1.761415         1.128398
 H         4.486597        -0.395922         2.220714
 H         5.368881        -1.586697         1.118542
 H         5.745615         0.875690         0.591922
 H         4.206401         2.138808        -0.723034
 H         1.919219         2.034657        -0.777669
