19
Iteration:  1591charge 0 multiplicity 1
 C         0.001037         0.459857         0.105744
 C         1.512211         0.064836         0.108938
 C         1.998379        -0.776516         1.288002
 O         3.277555        -1.447929         1.094485
 C         4.396655        -0.686741         1.130691
 C         4.722483         0.589516         0.170624
 C         3.854167         1.298432        -0.549805
 C         2.438792         0.892970        -0.767943
 O         2.110177        -0.524532        -1.039562
 H        -0.247199         1.257524         0.791516
 H        -0.093371         0.923851        -0.884620
 H        -0.596317        -0.519074         0.406547
 H         1.957327        -0.159354         2.212195
 H         1.376843        -1.681347         1.486389
 H         4.301812        -0.240868         2.196907
 H         5.224007        -1.448354         0.975845
 H         5.695828         0.978138         0.480101
 H         4.051094         2.206808        -0.971561
 H         1.991705         1.596107        -1.358166
