19
Iteration:    67charge 0 multiplicity 1
 C         0.121593         0.391929         0.146318
 C         1.549248        -0.044855         0.019458
 C         2.127134        -0.646559         1.295549
 O         3.258908        -1.449768         1.123948
 C         4.503051        -0.719917         1.168495
 C         4.668361         0.559705         0.283967
 C         3.767221         1.262300        -0.395965
 C         2.358264         0.966497        -0.682750
 O         1.960555        -0.469817        -1.331593
 H         0.078747         1.309334         0.654627
 H        -0.371684         0.606435        -0.846002
 H        -0.507388        -0.260140         0.681171
 H         2.127299         0.094932         2.191589
 H         1.313628        -1.317955         1.588399
 H         4.762820        -0.487808         2.228778
 H         5.182859        -1.416570         0.874579
 H         5.693264         0.898884         0.319833
 H         4.207668         1.797889        -1.154146
 H         1.806099         1.722030        -1.192439
