19
Iteration:  2852charge 0 multiplicity 1
 C        -0.033824         0.317980         0.170505
 C         1.511771         0.074707         0.099004
 C         2.009739        -0.886486         1.137040
 O         3.285519        -1.536172         0.929125
 C         4.508179        -0.785162         1.008992
 C         4.712464         0.530690         0.375271
 C         3.817174         1.314992        -0.260281
 C         2.402349         1.070207        -0.628905
 O         2.091485        -0.240336        -1.192146
 H        -0.261211         0.738924        -0.916474
 H        -0.724846        -0.624534         0.318354
 H        -0.293524         1.128039         0.976551
 H         2.033186        -0.281435         2.168360
 H         1.187054        -1.577080         1.354053
 H         4.770030        -0.558511         2.169109
 H         5.251269        -1.512958         0.784301
 H         5.720680         0.925226         0.561980
 H         4.191303         2.215395        -0.722623
 H         1.908863         1.797819        -1.261273
