19
Iteration:  4695
 C         0.191243         0.549874         0.305995
 C         1.595032         0.053069         0.032011
 C         2.120769        -0.964938         1.052348
 O         3.346982        -1.580670         0.702386
 C         4.399547        -0.733783         1.198650
 C         4.585493         0.645323         0.661913
 C         3.802052         1.296781        -0.242645
 C         2.462901         0.897177        -0.718567
 O         1.850369        -0.302290        -1.331427
 H        -0.469238        -0.146989        -0.262761
 H        -0.028682         0.603875         1.428633
 H         0.062534         1.602970        -0.081432
 H         1.906199        -0.661889         2.103331
 H         1.318096        -1.851055         0.997900
 H         4.121921        -0.693578         2.287912
 H         5.307342        -1.326500         1.226717
 H         5.608760         1.131400         0.963557
 H         4.092240         2.231613        -0.695821
 H         1.984359         1.780832        -1.350119
