19
Iteration:   138
 C        -0.013836         0.256416         0.109486
 C         1.508932         0.081673         0.038156
 C         2.074161        -0.528651         1.374491
 O         3.216294        -1.222482         0.997752
 C         4.497966        -0.761481         1.068755
 C         4.701475         0.470910         0.320472
 C         3.802352         1.133172        -0.432640
 C         2.448182         0.874521        -0.741458
 O         2.065207        -0.470427        -1.123215
 H        -0.364475         0.501034         1.194012
 H        -0.239532         1.147812        -0.380654
 H        -0.629263        -0.622878        -0.285421
 H         2.129721         0.251578         2.125990
 H         1.336766        -1.274384         1.805317
 H         4.879313        -0.677808         2.071433
 H         5.160667        -1.658125         0.579106
 H         5.723299         0.918857         0.476321
 H         4.334265         1.989282        -1.004694
 H         1.879093         1.663671        -1.374041
