19
Iteration:   570charge 0 multiplicity 1
 C         0.088730         0.383776         0.232593
 C         1.584079        -0.016396        -0.020978
 C         2.024703        -0.833909         1.263551
 O         3.312899        -1.444485         1.372724
 C         4.472544        -0.585921         1.176420
 C         4.640781         0.495767         0.238004
 C         3.852977         1.159179        -0.499169
 C         2.422701         0.890644        -0.755852
 O         1.947523        -0.282037        -1.441201
 H        -0.052137         0.905725         1.243563
 H        -0.390834         0.943201        -0.606204
 H        -0.570859        -0.502728         0.330787
 H         1.977729         0.030199         1.949041
 H         1.199672        -1.615986         1.308681
 H         4.666311        -0.125277         2.246627
 H         5.189976        -1.345009         0.969329
 H         5.641057         0.928537         0.392892
 H         4.128360         2.121984        -1.062618
 H         1.953439         1.830172        -1.245552
