19
Iteration:   968charge 0 multiplicity 1
 C         0.045101         0.347753         0.237336
 C         1.526679         0.002296        -0.031913
 C         2.161062        -0.619947         1.248194
 O         3.264812        -1.409012         1.019999
 C         4.486028        -0.658491         1.346600
 C         4.684088         0.594568         0.416597
 C         3.850819         1.068010        -0.469929
 C         2.376688         0.895616        -0.869688
 O         1.912512        -0.426295        -1.331968
 H         0.067008         1.146567         0.943557
 H        -0.573587         0.634605        -0.647671
 H        -0.398805        -0.489838         0.749798
 H         2.387476         0.285959         1.898345
 H         1.349813        -1.243413         1.706328
 H         4.485565        -0.381783         2.386131
 H         5.284709        -1.334689         1.209647
 H         5.605095         0.968956         0.675676
 H         4.318650         1.935258        -0.949857
 H         2.012139         1.747493        -1.471559
