19
Iteration:  4711
 C         0.142467         0.586472         0.277348
 C         1.548525         0.063923         0.095312
 C         2.058235        -1.053870         0.999392
 O         3.333564        -1.496770         0.596546
 C         4.329261        -0.721664         1.257083
 C         4.582382         0.629467         0.656790
 C         3.809705         1.248023        -0.283626
 C         2.446355         0.991832        -0.724776
 O         1.991013        -0.386340        -1.209777
 H        -0.603025        -0.215476         0.245964
 H         0.056524         0.822617         1.318275
 H         0.056476         1.445859        -0.391362
 H         2.293574        -0.681736         1.995674
 H         1.386266        -1.859590         0.963168
 H         4.393970        -0.646412         2.328701
 H         5.307938        -1.188181         0.994405
 H         5.555333         1.038999         0.809253
 H         4.343103         2.142441        -0.658665
 H         1.954979         1.806446        -1.093291
