19
Iteration:  3731charge 0 multiplicity 1
 C         0.149144         0.423929         0.443823
 C         1.609618         0.025624        -0.049797
 C         2.088327        -0.974396         1.055883
 O         3.334683        -1.618577         0.953840
 C         4.405212        -0.698285         1.254664
 C         4.662588         0.632597         0.457910
 C         3.814001         1.296330        -0.358679
 C         2.434566         0.986445        -0.756425
 O         1.858198        -0.220855        -1.391850
 H        -0.060631         1.427104        -0.012214
 H        -0.543286        -0.245376        -0.185259
 H         0.086820         0.330444         1.530088
 H         1.904277        -0.626177         2.013272
 H         1.350173        -1.788159         0.788195
 H         4.143665        -0.280870         2.293051
 H         5.173924        -1.344396         1.166411
 H         5.576620         1.029018         0.757938
 H         4.261743         2.199227        -0.839244
 H         2.004692         1.889718        -1.039048
