19
Iteration:   635charge 0 multiplicity 1
 C        -0.012654         0.279869         0.149275
 C         1.522845         0.064013         0.116635
 C         2.022115        -0.705500         1.333238
 O         3.184437        -1.346758         0.895253
 C         4.422929        -0.604592         1.296106
 C         4.795315         0.524344         0.272968
 C         3.938330         1.156911        -0.562744
 C         2.469563         0.909951        -0.778116
 O         2.000116        -0.443477        -1.138067
 H        -0.404107         0.471748         1.175101
 H        -0.372730         1.108423        -0.425128
 H        -0.528694        -0.608444        -0.226121
 H         2.348037        -0.064166         2.192512
 H         1.373186        -1.584648         1.720997
 H         4.278637        -0.109395         2.252872
 H         5.155356        -1.300628         1.367813
 H         5.832654         0.872399         0.409977
 H         4.446922         2.044190        -1.120375
 H         1.960667         1.781496        -1.351137
