19
Iteration:  3866charge 0 multiplicity 1
 C         0.189990         0.432009         0.338897
 C         1.515475         0.070016        -0.027173
 C         2.082642        -0.863072         1.108970
 O         3.324422        -1.623223         0.903703
 C         4.510418        -0.759842         1.182964
 C         4.560544         0.637388         0.603667
 C         3.812622         1.251798        -0.334238
 C         2.451687         0.951192        -0.794971
 O         1.873231        -0.274052        -1.384819
 H        -0.283292         1.212583        -0.253587
 H        -0.584115        -0.611376         0.302425
 H         0.107585         0.944237         1.340154
 H         2.250215        -0.238807         2.032556
 H         1.343850        -1.670905         1.463587
 H         4.595941        -0.542745         2.294996
 H         5.384376        -1.309087         0.843685
 H         5.471862         1.296815         0.848585
 H         3.993935         2.256877        -0.688540
 H         2.019457         1.846462        -1.392712
