19
Iteration:  1017charge 0 multiplicity 1
 C         0.034877         0.298698         0.030841
 C         1.499547         0.087899         0.065873
 C         2.061646        -0.578590         1.362077
 O         3.273117        -1.359501         1.100000
 C         4.507484        -0.737474         1.153166
 C         4.717021         0.548258         0.353598
 C         3.832885         1.190398        -0.499416
 C         2.424104         0.851484        -0.753998
 O         1.934692        -0.465785        -1.196384
 H        -0.341996         0.859739         0.998236
 H        -0.183144         0.983782        -0.816730
 H        -0.481192        -0.715519        -0.148595
 H         2.143358         0.264099         2.060802
 H         1.405353        -1.382600         1.632588
 H         4.742969        -0.346105         2.171201
 H         5.312536        -1.539081         0.822268
 H         5.831982         0.825552         0.553448
 H         4.267972         2.099506        -0.927867
 H         1.986709         1.692827        -1.300183
