19
Iteration:  3143
 C         0.041649         0.381963         0.415366
 C         1.496580         0.087694         0.125759
 C         2.097387        -1.073948         0.929254
 O         3.423939        -1.415487         0.715040
 C         4.265871        -0.553166         1.431675
 C         4.780706         0.548194         0.509726
 C         4.002308         1.046387        -0.476031
 C         2.490661         0.955868        -0.633338
 O         1.778275        -0.128689        -1.338211
 H        -0.427451         1.025021        -0.281974
 H        -0.504684        -0.622306         0.408403
 H        -0.034822         0.801799         1.507616
 H         1.928923        -0.955670         1.945918
 H         1.509364        -1.909727         0.487934
 H         3.572495        -0.191227         2.256403
 H         5.154233        -1.039977         1.843854
 H         5.858297         0.861373         0.521123
 H         4.380418         1.648610        -1.248185
 H         2.173615         1.851857        -1.067761
