19
Iteration:  1388charge 0 multiplicity 1
 C         0.057207         0.375309         0.331335
 C         1.515951         0.041158         0.020358
 C         2.142175        -0.768633         1.171127
 O         3.333529        -1.296736         0.991063
 C         4.464742        -0.529161         1.457249
 C         4.701733         0.559904         0.467780
 C         3.916300         0.930425        -0.589415
 C         2.468889         0.816728        -0.847683
 O         1.764557        -0.341555        -1.414801
 H         0.024694         1.266633         0.995312
 H        -0.549764         0.378492        -0.631411
 H        -0.308841        -0.498966         0.735270
 H         2.125512        -0.110572         2.027235
 H         1.303591        -1.525523         1.476981
 H         4.203817        -0.044615         2.492312
 H         5.236566        -1.253700         1.670244
 H         5.650306         1.054188         0.524785
 H         4.432498         1.476229        -1.292253
 H         2.050527         1.831395        -1.315364
