19
Iteration:  3485
 C         0.163125         0.555311         0.359444
 C         1.507219        -0.037826        -0.022335
 C         2.030705        -0.980452         1.087605
 O         3.397859        -1.521878         0.869366
 C         4.534109        -0.765074         1.262853
 C         4.589640         0.645811         0.562666
 C         3.803599         1.214838        -0.390185
 C         2.325899         0.917444        -0.722270
 O         1.934659        -0.225410        -1.389524
 H         0.118859         1.717922         0.017956
 H        -0.659477        -0.095770         0.036125
 H         0.168741         0.625344         1.531592
 H         1.809395        -0.604861         2.174142
 H         1.409794        -1.842703         0.992685
 H         4.716755        -0.770225         2.303424
 H         5.311598        -1.278349         0.854600
 H         5.460890         1.167056         0.860827
 H         4.062243         2.109983        -0.972811
 H         1.775061         1.793869        -1.098591
