19
Iteration:  2504charge 0 multiplicity 1
 C         0.029651         0.441120         0.107339
 C         1.440255         0.052004         0.152112
 C         2.100303        -0.750271         1.225878
 O         3.344894        -1.372571         0.752565
 C         4.497971        -0.726267         1.247546
 C         4.707720         0.567163         0.435512
 C         3.821206         1.179490        -0.431181
 C         2.419196         0.849409        -0.731596
 O         1.937810        -0.421700        -1.115134
 H        -0.525231        -0.178479        -0.718912
 H        -0.487397         0.185668         1.067243
 H         0.045243         1.464370        -0.023513
 H         2.326023        -0.105014         2.069159
 H         1.364790        -1.520085         1.565101
 H         4.666173        -0.687921         2.415138
 H         5.253367        -1.406084         0.804551
 H         5.421531         1.238932         0.771379
 H         4.232103         2.082225        -0.878654
 H         1.929106         1.748521        -1.298080
