19
Iteration:  2911
 C        -0.072892         0.401957         0.240917
 C         1.495189         0.055052         0.032658
 C         2.166292        -0.727975         1.182481
 O         3.317645        -1.401954         0.711125
 C         4.554611        -0.856024         1.143663
 C         4.631113         0.576923         0.614819
 C         3.811224         1.201532        -0.281996
 C         2.463298         0.920217        -0.748312
 O         1.942257        -0.360483        -1.279213
 H        -0.398726         1.416602        -0.027984
 H        -0.739614        -0.344003        -0.166871
 H        -0.255519         0.382476         1.305615
 H         2.636846        -0.027249         1.886742
 H         1.386103        -1.426064         1.645600
 H         4.620190        -0.879325         2.347532
 H         5.283991        -1.503575         0.659872
 H         5.512971         1.159379         0.983834
 H         4.074616         2.271281        -0.406579
 H         2.079126         1.755478        -1.320543
