19
Iteration:  1491charge 0 multiplicity 1
 C        -0.013436         0.247938         0.153554
 C         1.503463         0.056245         0.029549
 C         2.100641        -0.572377         1.293227
 O         3.259206        -1.345043         1.084592
 C         4.469631        -0.679088         1.205755
 C         4.724977         0.506958         0.327689
 C         3.874006         1.081578        -0.488037
 C         2.416886         0.924465        -0.755997
 O         1.961660        -0.376939        -1.240855
 H        -0.315323         0.619179         1.138992
 H        -0.189125         0.887265        -0.666575
 H        -0.392467        -0.814187         0.026772
 H         2.282544         0.238836         1.983289
 H         1.313976        -1.247423         1.661614
 H         4.547440        -0.425466         2.287261
 H         5.195176        -1.568440         1.128658
 H         5.722833         0.947192         0.390216
 H         4.208937         1.899723        -1.188182
 H         2.119914         1.697228        -1.405107
