19
Iteration:  2570
 C         0.112854         0.452778         0.292613
 C         1.550515         0.075217         0.036110
 C         2.096426        -0.972485         1.117907
 O         3.323074        -1.562686         1.074073
 C         4.423232        -0.605628         1.295573
 C         4.652632         0.537608         0.339471
 C         3.783390         1.232821        -0.436748
 C         2.405544         0.961978        -0.730595
 O         1.975378        -0.269932        -1.371551
 H        -0.402413        -0.264532         0.899004
 H        -0.014939         1.359519         0.838134
 H        -0.386779         0.478319        -0.596756
 H         1.926580        -0.421772         2.071509
 H         1.313565        -1.778329         1.092879
 H         4.377519        -0.250929         2.285447
 H         5.402323        -1.096996         1.127451
 H         5.649378         0.828641         0.435877
 H         4.252865         1.948763        -1.135628
 H         1.758845         1.798302        -1.190050
