19
Iteration:  2345charge 0 multiplicity 1
 C         0.011244         0.511849         0.160913
 C         1.508887         0.045105         0.134578
 C         2.040420        -0.860320         1.295344
 O         3.321581        -1.452222         0.916405
 C         4.422586        -0.582631         1.201459
 C         4.715683         0.631100         0.366921
 C         3.918486         1.226513        -0.535585
 C         2.435634         0.773473        -0.818380
 O         1.949303        -0.470456        -1.143442
 H        -0.106419         1.468511         0.641584
 H        -0.357048         0.709819        -0.822081
 H        -0.736700        -0.170510         0.676361
 H         2.114267        -0.435168         2.295509
 H         1.356443        -1.713087         1.329911
 H         4.363597        -0.265920         2.304206
 H         5.368939        -1.280854         1.201184
 H         5.719362         1.162774         0.592640
 H         4.284965         2.197939        -0.889242
 H         1.969336         1.608724        -1.320506
