19
Iteration:  2689
 C         0.241357         0.513065         0.422580
 C         1.560830        -0.054330        -0.007490
 C         2.062184        -1.146082         0.936738
 O         3.454619        -1.586420         1.021086
 C         4.355585        -0.556322         1.361688
 C         4.534640         0.551642         0.479807
 C         3.806690         1.207847        -0.463313
 C         2.471100         1.023435        -0.728997
 O         1.812510        -0.141957        -1.413293
 H         0.263828         1.596136         0.490450
 H        -0.567439         0.543990        -0.405880
 H        -0.076197         0.115558         1.412402
 H         1.716303        -0.943562         1.926713
 H         1.506936        -2.091380         0.650746
 H         4.107965         0.045075         2.293081
 H         5.321059        -1.159485         1.577577
 H         5.583546         0.767336         0.454397
 H         4.487393         1.887716        -1.009052
 H         1.937865         1.889392        -1.091805
