19
Iteration:  1281
 C         0.043249         0.306261         0.248613
 C         1.544251         0.051747         0.070387
 C         1.969409        -0.914326         1.149370
 O         3.366122        -1.339982         1.082116
 C         4.336098        -0.407071         1.494779
 C         4.815740         0.375065         0.242635
 C         3.945922         1.020881        -0.648237
 C         2.448417         0.973628        -0.800464
 O         1.868269        -0.245515        -1.284173
 H        -0.267178         0.496333         1.315829
 H        -0.475776         1.094678        -0.391241
 H        -0.426634        -0.653624         0.207621
 H         1.973734        -0.473086         2.206290
 H         1.415603        -1.869456         1.153358
 H         3.929169         0.346782         2.243501
 H         5.349122        -0.880676         1.845994
 H         5.906949         0.514125         0.101629
 H         4.458974         1.478777        -1.415381
 H         2.094498         1.914596        -1.080577
