19
Iteration:  4275
 C         0.085714         0.385080         0.319961
 C         1.516297         0.039776        -0.025172
 C         2.121875        -0.889208         1.118273
 O         3.402731        -1.572460         0.767927
 C         4.483817        -0.783213         1.301614
 C         4.639022         0.577566         0.653359
 C         3.853432         1.196086        -0.211216
 C         2.427549         0.944182        -0.769905
 O         1.796532        -0.092124        -1.491968
 H        -0.343226        -0.411585         0.927005
 H         0.033197         1.285825         0.852666
 H        -0.561015         0.617325        -0.599366
 H         2.176548        -0.264145         2.002102
 H         1.354150        -1.778248         1.225444
 H         4.330486        -0.788902         2.485147
 H         5.273010        -1.420417         0.989438
 H         5.689300         1.094372         0.775043
 H         4.289424         2.083874        -0.577129
 H         1.980793         2.042087        -1.112799
