19
Iteration:  4149charge 0 multiplicity 1
 C         0.052775         0.339424         0.362020
 C         1.523210         0.055449        -0.034224
 C         2.025534        -1.015196         0.969762
 O         3.377756        -1.512494         0.957566
 C         4.418849        -0.616235         1.341304
 C         4.741565         0.553937         0.473459
 C         3.913532         1.056796        -0.466075
 C         2.420595         1.036243        -0.600536
 O         1.880581        -0.055967        -1.405406
 H        -0.481021         0.358922        -0.567320
 H        -0.357444        -0.558027         0.944582
 H        -0.166101         1.306458         0.854695
 H         1.674158        -0.665933         1.964307
 H         1.389631        -1.912740         0.817593
 H         4.147405        -0.193371         2.420989
 H         5.287727        -1.305882         1.601917
 H         5.793463         0.803270         0.523263
 H         4.382024         1.731361        -1.184434
 H         1.992231         2.083516        -0.726472
