19
Iteration:  4317charge 0 multiplicity 1
 C         0.035840         0.554025         0.289112
 C         1.520529         0.069001         0.110987
 C         2.038997        -1.056116         1.074541
 O         3.287078        -1.511558         0.604678
 C         4.438758        -0.777697         1.143507
 C         4.631967         0.698949         0.621272
 C         3.817076         1.323982        -0.211144
 C         2.459655         0.893913        -0.715456
 O         2.083025        -0.318164        -1.245428
 H        -0.315871         0.123450         1.257070
 H        -0.011233         1.581907         0.556514
 H        -0.552109         0.531612        -0.666834
 H         2.004581        -0.889553         2.165529
 H         1.213443        -1.941505         1.068355
 H         4.202979        -0.700448         2.193738
 H         5.296421        -1.420745         0.913828
 H         5.656732         0.902192         0.836776
 H         4.182192         2.268234        -0.523024
 H         2.036846         1.816692        -1.273614
