19
Iteration:  2928charge 0 multiplicity 1
 C         0.067843         0.388402         0.318378
 C         1.476800         0.094224         0.007959
 C         2.089654        -0.746967         1.157949
 O         3.277463        -1.535404         0.848956
 C         4.512312        -0.783903         1.081164
 C         4.690468         0.575705         0.567864
 C         3.776334         1.260119        -0.249507
 C         2.417381         0.926435        -0.813840
 O         2.007123        -0.315039        -1.312585
 H        -0.245678         1.486447         0.004638
 H        -0.571326        -0.448960        -0.194417
 H        -0.183935         0.211771         1.431768
 H         2.174254        -0.116787         2.107311
 H         1.340309        -1.508899         1.310486
 H         4.659611        -0.726897         2.171086
 H         5.334940        -1.466927         0.734431
 H         5.599125         1.105911         1.006179
 H         4.050477         2.248925        -0.555763
 H         1.865362         1.721306        -1.405046
