19
Iteration:  1793
 C         0.130311         0.304361         0.308941
 C         1.564243         0.008065        -0.011817
 C         2.107245        -0.879408         1.123693
 O         3.329928        -1.384027         1.174879
 C         4.360866        -0.393305         1.501668
 C         4.826271         0.436230         0.244295
 C         3.908059         0.987284        -0.668383
 C         2.453525         0.925924        -0.742679
 O         1.706450        -0.216185        -1.390818
 H         0.040600         0.480010         1.485477
 H        -0.349774         1.140174        -0.204932
 H        -0.428667        -0.495254        -0.096388
 H         1.824801        -0.327523         2.111891
 H         1.456510        -1.729370         1.148555
 H         3.940824         0.226692         2.271153
 H         5.199902        -1.009625         2.035074
 H         5.827332         0.736887         0.230513
 H         4.526863         1.591998        -1.400794
 H         2.114761         1.790997        -1.156935
