19
Iteration:   783charge 0 multiplicity 1
 C         0.104601         0.599622         0.090246
 C         1.481665        -0.026211         0.190342
 C         2.030742        -1.046745         1.244013
 O         3.357147        -1.370618         0.941181
 C         4.369188        -0.411588         1.346053
 C         4.674057         0.524791         0.221849
 C         3.899492         1.117542        -0.655440
 C         2.441655         0.851222        -0.606556
 O         1.952682        -0.439892        -1.128426
 H        -0.309006         1.293286         0.842090
 H         0.230912         1.198804        -0.942919
 H        -0.679417        -0.207246        -0.051767
 H         1.886598        -0.636190         2.329231
 H         1.703906        -2.054932         1.182036
 H         4.059125         0.160495         2.184455
 H         5.258038        -1.046810         1.585952
 H         5.696608         0.911486         0.183823
 H         4.222346         1.821265        -1.262638
 H         1.903624         1.687603        -0.973307
