19
Iteration:  1194
 C         0.085282         0.621876         0.163036
 C         1.559390        -0.006032         0.075101
 C         1.985689        -1.008508         1.219032
 O         3.350914        -1.446217         1.096745
 C         4.378980        -0.527256         1.235346
 C         4.651475         0.624967         0.267539
 C         3.835934         1.169631        -0.592295
 C         2.428244         0.884573        -0.743706
 O         2.044088        -0.504627        -1.145220
 H         0.184673         1.349227         1.043845
 H         0.088405         1.292310        -0.772707
 H        -0.816093         0.008530         0.307344
 H         1.576992        -0.717853         2.182359
 H         1.362054        -1.813660         1.033534
 H         4.249155         0.044736         2.202559
 H         5.234189        -1.303366         1.329285
 H         5.637371         1.104598         0.377557
 H         4.114279         1.984796        -1.076161
 H         1.900168         1.611243        -1.293260
