19
Iteration:  1069
 C         0.065440         0.302976         0.100357
 C         1.568200         0.140696         0.110692
 C         2.011134        -0.698794         1.352106
 O         3.154858        -1.455924         1.182237
 C         4.332052        -0.670278         1.108417
 C         4.622074         0.502060         0.085413
 C         3.816449         1.300893        -0.518161
 C         2.443073         0.937865        -0.788049
 O         2.257234        -0.486267        -1.074693
 H        -0.214716         0.686452         1.121476
 H        -0.193832         1.025783        -0.604522
 H        -0.398106        -0.675233        -0.196442
 H         2.099940         0.106958         2.168628
 H         1.212499        -1.440304         1.574273
 H         4.530216        -0.163897         2.113387
 H         5.065800        -1.480119         0.880190
 H         5.700759         0.714335         0.254312
 H         4.390819         2.291613        -0.933659
 H         1.859803         1.688343        -1.455064
