19
Iteration:  4721
 C         0.066328         0.560883         0.316090
 C         1.537513         0.033569         0.068617
 C         2.023086        -1.044877         1.026203
 O         3.333715        -1.443865         0.589674
 C         4.431192        -0.730812         1.237616
 C         4.542468         0.593532         0.604442
 C         3.880579         1.256892        -0.321550
 C         2.458901         0.936016        -0.648508
 O         2.054611        -0.323142        -1.198310
 H        -0.720607        -0.225172         0.221150
 H         0.090493         1.202158         1.139925
 H        -0.248501         1.285603        -0.503802
 H         1.816133        -0.727656         2.069542
 H         1.370690        -1.927626         1.020217
 H         4.169043        -0.765771         2.287322
 H         5.296514        -1.389086         1.111475
 H         5.471823         1.107320         0.918513
 H         4.251844         2.186085        -0.794105
 H         1.960110         1.732233        -1.095245
