19
Iteration:  1811
 C         0.100473         0.413953         0.205453
 C         1.571897         0.006852         0.061124
 C         1.970912        -0.928112         1.167428
 O         3.435118        -1.407069         1.196098
 C         4.394472        -0.391248         1.385120
 C         4.721404         0.395413         0.237394
 C         3.882632         1.053846        -0.624525
 C         2.417607         0.948139        -0.676917
 O         1.843501        -0.273910        -1.338077
 H        -0.170107         0.756510         1.219739
 H        -0.104427         1.145734        -0.601486
 H        -0.504445        -0.439098        -0.171442
 H         1.796554        -0.431383         2.116610
 H         1.469548        -1.906877         1.314409
 H         3.968086         0.268830         2.224831
 H         5.357356        -0.854823         1.562200
 H         5.814057         0.334346        -0.056384
 H         4.359973         1.633584        -1.474725
 H         1.790419         1.873125        -0.876485
