19
Iteration:  3134charge 0 multiplicity 1
 C         0.130643         0.398369         0.443391
 C         1.543175         0.098320         0.088333
 C         2.039300        -1.119158         0.929879
 O         3.424372        -1.417366         0.686384
 C         4.244184        -0.545661         1.408563
 C         4.738466         0.596104         0.530074
 C         3.981951         1.052562        -0.477317
 C         2.492101         0.924989        -0.676206
 O         1.759337        -0.152843        -1.317929
 H        -0.247694         1.114716        -0.151252
 H        -0.435047        -0.473020         0.426181
 H         0.108031         0.800726         1.432039
 H         1.862296        -1.025782         1.960083
 H         1.475851        -2.088858         0.693942
 H         3.781590        -0.021468         2.391165
 H         5.047502        -1.251477         1.912461
 H         5.790975         1.011466         0.772307
 H         4.425572         1.777872        -1.120250
 H         2.158672         1.889456        -1.146771
