19
Iteration:   414charge 0 multiplicity 1
 C         0.057344         0.468191         0.251217
 C         1.507743        -0.001497         0.075386
 C         2.023623        -0.902154         1.242169
 O         3.348470        -1.362446         1.042152
 C         4.351803        -0.445576         1.338624
 C         4.752072         0.506931         0.209098
 C         3.870581         1.048899        -0.678298
 C         2.437217         0.897698        -0.713387
 O         2.005294        -0.394063        -1.199841
 H        -0.162758         0.771748         1.265002
 H        -0.350603         1.284479        -0.432590
 H        -0.637864        -0.374842         0.102609
 H         1.918504        -0.480771         2.199154
 H         1.354566        -1.815011         1.316616
 H         4.069878         0.095906         2.222731
 H         5.192431        -1.003579         1.610757
 H         5.839880         0.732157         0.046052
 H         4.176935         1.735400        -1.346362
 H         1.886468         1.755764        -1.116664
