19
Iteration:  2670charge 0 multiplicity 1
 C         0.167785         0.389829         0.404087
 C         1.571384         0.019564         0.027006
 C         2.078996        -1.114990         0.950895
 O         3.372641        -1.569852         1.011985
 C         4.303253        -0.564660         1.459954
 C         4.747663         0.582087         0.402852
 C         3.905651         1.145654        -0.566111
 C         2.424298         1.014144        -0.640092
 O         1.798690        -0.090195        -1.462770
 H         0.113887         1.410835         0.848312
 H        -0.489843         0.344124        -0.394871
 H        -0.236808        -0.257250         1.058849
 H         1.811284        -0.656986         1.976582
 H         1.393196        -1.997800         0.819635
 H         3.986916        -0.073776         2.437039
 H         5.327172        -1.136257         1.542789
 H         5.813317         0.895320         0.507449
 H         4.386447         1.921349        -1.186752
 H         1.710602         1.922426        -0.828327
