19
Iteration:  2933
 C         0.088235         0.387942         0.298294
 C         1.532676         0.063488         0.011972
 C         2.081704        -0.759549         1.132518
 O         3.273690        -1.529428         0.893141
 C         4.490011        -0.767777         1.077627
 C         4.652935         0.570423         0.532389
 C         3.786000         1.280480        -0.244448
 C         2.413450         0.933543        -0.800130
 O         1.997453        -0.307940        -1.300607
 H        -0.263999         1.394383         0.069890
 H        -0.541545        -0.370217        -0.145695
 H        -0.067133         0.237317         1.361385
 H         2.215953        -0.210489         2.106760
 H         1.243270        -1.532066         1.161129
 H         4.645536        -0.695568         2.185881
 H         5.251601        -1.409810         0.657409
 H         5.622369         0.928206         0.902744
 H         4.090260         2.314505        -0.547364
 H         1.870808         1.707189        -1.297180
