19
Iteration:  3522charge 0 multiplicity 1
 C         0.129035         0.416174         0.346783
 C         1.481499         0.093404         0.080423
 C         2.064708        -0.920192         1.066266
 O         3.397485        -1.441415         0.650606
 C         4.388984        -0.722396         1.340204
 C         4.756019         0.608773         0.499629
 C         3.928303         1.184757        -0.359714
 C         2.454633         0.906454        -0.734469
 O         1.768137        -0.286852        -1.270178
 H        -0.191269         1.384232        -0.130708
 H        -0.715744        -0.252234        -0.202164
 H        -0.162092         0.316188         1.389761
 H         2.133870        -0.514886         2.045348
 H         1.493392        -1.906772         1.046556
 H         4.016686        -0.490461         2.303044
 H         5.251170        -1.439585         1.634004
 H         5.659893         1.235297         0.866822
 H         4.275739         2.140058        -0.770878
 H         2.095687         1.846862        -1.111410
