19
Iteration:  4071
 C         0.114260         0.591515         0.385650
 C         1.506025        -0.021824         0.095108
 C         1.977268        -1.248140         0.997234
 O         3.338137        -1.438833         0.686905
 C         4.249450        -0.505433         1.317242
 C         4.703244         0.635780         0.448590
 C         3.967489         1.188080        -0.466390
 C         2.507589         0.939834        -0.648930
 O         1.978138        -0.325269        -1.219694
 H         0.116064         1.626182         0.064769
 H        -0.779708         0.057059         0.049915
 H         0.036780         0.666534         1.551975
 H         1.726485        -1.206764         2.086183
 H         1.457917        -2.071613         0.502435
 H         3.809924        -0.146767         2.189095
 H         5.130595        -1.135279         1.730927
 H         5.794143         0.975702         0.705691
 H         4.359234         2.132018        -0.772308
 H         1.933858         1.837480        -1.097732
