19
Iteration:  1931
 C         0.126112         0.460561         0.180438
 C         1.553445         0.031804         0.014520
 C         2.135413        -0.682998         1.244587
 O         3.331993        -1.425095         1.088432
 C         4.476663        -0.687317         1.236668
 C         4.656015         0.614586         0.419797
 C         3.788768         1.159811        -0.445810
 C         2.453943         0.773112        -0.857680
 O         1.831150        -0.491178        -1.320481
 H         0.284827         1.199176         0.970439
 H        -0.252208         0.912859        -0.727140
 H        -0.666836        -0.309958         0.471934
 H         2.199576         0.067635         2.105777
 H         1.363410        -1.475819         1.651743
 H         4.703829        -0.349784         2.239137
 H         5.209698        -1.369580         0.896131
 H         5.309320         1.402031         0.760990
 H         3.916224         2.304511        -0.631578
 H         1.981622         1.699508        -1.496614
