19
Iteration:  3570
 C         0.000555         0.372629         0.199715
 C         1.542983        -0.023473         0.028841
 C         1.974144        -1.056833         1.099235
 O         3.314893        -1.534747         0.947624
 C         4.450452        -0.633561         1.255882
 C         4.767776         0.471781         0.254037
 C         3.870549         1.249065        -0.448003
 C         2.431612         1.090627        -0.420776
 O         1.988912        -0.087854        -1.289621
 H        -0.455787         0.906465        -0.549686
 H        -0.638849        -0.461363         0.194981
 H        -0.219153         0.676745         1.214586
 H         1.848145        -0.640089         2.041656
 H         1.388544        -1.978544         1.007906
 H         4.353743        -0.120461         2.267087
 H         5.402942        -1.335966         1.408447
 H         5.800145         0.623050         0.176686
 H         4.256557         2.056532        -1.100531
 H         1.895076         2.067829        -0.777178
