19
Iteration:   260
 C         0.010397         0.447727         0.186640
 C         1.503206         0.041689         0.113847
 C         2.114379        -0.742483         1.305091
 O         3.349274        -1.326970         0.854630
 C         4.470141        -0.548272         1.285162
 C         4.768645         0.555077         0.396573
 C         3.816441         0.940164        -0.518118
 C         2.379329         0.817816        -0.728808
 O         1.887192        -0.393838        -1.266485
 H        -0.136206         1.403069         0.785620
 H        -0.285932         0.619274        -0.783899
 H        -0.571071        -0.439534         0.614547
 H         2.378610        -0.125567         2.215110
 H         1.463529        -1.655265         1.518902
 H         4.289846        -0.130418         2.353710
 H         5.378798        -1.271592         1.278574
 H         5.724617         1.012062         0.423559
 H         4.234972         1.701628        -1.069757
 H         1.931522         1.745080        -1.195037
