19
Iteration:  4258charge 0 multiplicity 1
 C        -0.016720         0.346100         0.322704
 C         1.475368         0.025655        -0.065124
 C         2.108249        -0.967599         1.016771
 O         3.363632        -1.526533         0.911641
 C         4.500611        -0.779145         1.286953
 C         4.683912         0.476434         0.521379
 C         3.889263         1.193433        -0.291391
 C         2.423397         1.086475        -0.655056
 O         1.881624        -0.073714        -1.455971
 H        -0.600033        -0.558517         0.530307
 H         0.027267         1.102959         1.191452
 H        -0.560617         0.748093        -0.524220
 H         2.231568        -0.258076         1.899467
 H         1.454843        -1.762139         1.237157
 H         4.470386        -0.460376         2.306808
 H         5.452859        -1.398886         1.336454
 H         5.603966         0.948041         0.818492
 H         4.177898         2.199612        -0.710666
 H         1.992662         1.937780        -0.983238
