19
Iteration:  1365
 C         0.076561         0.371717         0.407105
 C         1.491608         0.090808        -0.021602
 C         2.062578        -0.788670         1.134265
 O         3.372447        -1.398704         0.953588
 C         4.360805        -0.421493         1.486833
 C         4.738815         0.541728         0.435378
 C         3.973232         0.994139        -0.638100
 C         2.479342         0.855359        -0.858448
 O         1.804077        -0.408652        -1.302993
 H         0.135454         1.033788         1.272387
 H        -0.441085         0.795816        -0.489464
 H        -0.415754        -0.563140         0.465831
 H         1.950536        -0.268311         2.078490
 H         1.234763        -1.580214         1.166050
 H         3.950077         0.007046         2.487831
 H         5.185360        -0.979863         1.783991
 H         5.764516         0.826032         0.376229
 H         4.467045         1.719028        -1.238735
 H         2.094530         1.671006        -1.621057
