19
Iteration:  2759
 C         0.045249         0.357099         0.287395
 C         1.465334         0.082987         0.161195
 C         2.019521        -0.965453         1.038548
 O         3.345774        -1.355509         0.676740
 C         4.427280        -0.641878         1.314829
 C         4.759346         0.560059         0.483562
 C         3.958685         1.054168        -0.411479
 C         2.446532         0.935685        -0.565795
 O         1.892484        -0.191524        -1.327298
 H        -0.293349         1.020275        -0.482019
 H        -0.502709        -0.547165         0.155731
 H        -0.153740         0.724389         1.236670
 H         1.952943        -0.628763         2.113387
 H         1.364104        -1.855235         1.034632
 H         3.935980        -0.368275         2.296911
 H         5.231399        -1.431487         1.712547
 H         5.816938         0.891983         0.680710
 H         4.307963         1.859177        -1.031247
 H         2.012806         1.973232        -0.978895
