19
Iteration:  4947
 C         0.142277         0.456292         0.280313
 C         1.523075        -0.021082         0.021172
 C         2.055505        -1.103099         1.050438
 O         3.366765        -1.577234         0.757414
 C         4.351548        -0.661815         1.274832
 C         4.659986         0.587588         0.518395
 C         3.899767         1.276565        -0.326847
 C         2.448396         0.979328        -0.625564
 O         1.901592        -0.109819        -1.352827
 H         0.097349         0.908050         1.267606
 H        -0.183366         1.202455        -0.407271
 H        -0.677948        -0.328727         0.213940
 H         1.883382        -0.695301         2.135833
 H         1.519223        -2.022580         0.898448
 H         4.061366        -0.494377         2.370418
 H         5.200082        -1.395451         1.344944
 H         5.604402         0.932886         0.879620
 H         4.311843         2.220738        -0.645132
 H         1.871473         1.970706        -0.818817
