19
Iteration:  2680charge 0 multiplicity 1
 C         0.171348         0.452082         0.427614
 C         1.633434        -0.046219        -0.061732
 C         2.051552        -1.111768         0.953203
 O         3.419008        -1.601889         1.041777
 C         4.327807        -0.547755         1.385311
 C         4.628477         0.578586         0.433442
 C         3.908965         1.195910        -0.480902
 C         2.407838         1.029007        -0.685677
 O         1.777590        -0.123025        -1.423753
 H         0.302040         1.507961         0.718691
 H        -0.446632         0.351809        -0.412067
 H        -0.189837        -0.026046         1.241300
 H         1.705440        -0.750242         1.962984
 H         1.468024        -2.036373         0.659038
 H         3.996623        -0.248498         2.436949
 H         5.364288        -1.100025         1.627344
 H         5.686274         0.877857         0.436073
 H         4.333060         1.798107        -1.291864
 H         2.025276         2.095062        -0.887653
