19
Iteration:  2841charge 0 multiplicity 1
 C         0.041831         0.325600         0.151793
 C         1.555331         0.064334         0.028293
 C         2.031248        -0.894458         1.163064
 O         3.207806        -1.607122         1.013858
 C         4.494089        -0.795915         1.084771
 C         4.685862         0.553287         0.286081
 C         3.793698         1.361357        -0.295009
 C         2.377192         1.093028        -0.579456
 O         2.124450        -0.212817        -1.225051
 H        -0.557376         0.624832        -0.815155
 H        -0.416666        -0.681341         0.559637
 H        -0.182863         1.153518         0.953089
 H         1.913900        -0.357640         2.217909
 H         1.379628        -1.767459         1.032820
 H         4.753651        -0.595376         2.250961
 H         5.208094        -1.421221         0.620158
 H         5.729392         0.868986         0.188288
 H         4.158201         2.298707        -0.705793
 H         1.894693         1.979521        -0.952397
