19
Iteration:  1240
 C         0.008408         0.304960         0.291585
 C         1.437561         0.052240        -0.033335
 C         2.079854        -0.828519         1.180320
 O         3.373343        -1.375103         1.038794
 C         4.397229        -0.440733         1.461863
 C         4.808036         0.463326         0.380998
 C         3.969916         0.914174        -0.640073
 C         2.436676         0.894895        -0.741606
 O         1.829134        -0.216828        -1.388820
 H        -0.080214         0.873723         1.234721
 H        -0.513145         0.839175        -0.543882
 H        -0.428787        -0.738789         0.550918
 H         1.964930        -0.163246         2.047395
 H         1.390765        -1.550463         1.558689
 H         4.049390         0.153789         2.352060
 H         5.308961        -1.096820         1.625896
 H         5.848734         0.898355         0.533873
 H         4.527065         1.552569        -1.383985
 H         1.985120         1.848552        -1.139957
