19
Iteration:   350
 C         0.058663         0.378417         0.311767
 C         1.521214         0.027410         0.055179
 C         2.091257        -0.820407         1.202980
 O         3.379725        -1.430576         1.026650
 C         4.376556        -0.452829         1.423056
 C         4.724018         0.565571         0.269070
 C         3.929794         0.975723        -0.679288
 C         2.395415         0.896442        -0.725159
 O         1.855618        -0.320010        -1.314956
 H        -0.105371         0.883136         1.232424
 H        -0.355664         1.100598        -0.532411
 H        -0.446531        -0.573797         0.347086
 H         2.052397        -0.057569         2.101172
 H         1.372547        -1.641417         1.478270
 H         4.038398        -0.042993         2.407327
 H         5.371153        -1.050763         1.692099
 H         5.823944         0.757783         0.198570
 H         4.320429         1.434026        -1.497061
 H         1.945550         1.824019        -1.069216
