19
Iteration:  2616
 C        -0.009342         0.334745         0.198267
 C         1.507426         0.035638         0.162527
 C         1.989662        -1.013626         1.088753
 O         3.367131        -1.378847         0.818279
 C         4.361885        -0.476011         1.376888
 C         4.807133         0.443497         0.225965
 C         3.910380         1.084119        -0.468784
 C         2.477151         0.957602        -0.521497
 O         1.963220        -0.164243        -1.222496
 H        -0.568898         0.384023         1.193242
 H        -0.162538         1.300733        -0.137184
 H        -0.516111        -0.436767        -0.376779
 H         1.786992        -0.764770         2.159673
 H         1.424378        -1.942785         0.906071
 H         3.913187         0.113072         2.160867
 H         5.223100        -1.018543         1.840289
 H         5.890473         0.472085         0.020995
 H         4.308637         1.779125        -1.239577
 H         1.836616         1.888397        -0.766470
