19
Iteration:  2222
 C         0.020700         0.422723         0.243424
 C         1.525152        -0.045509         0.091069
 C         2.027143        -1.050785         1.122947
 O         3.391298        -1.417217         1.099222
 C         4.250483        -0.253635         1.349825
 C         4.841550         0.394344         0.106839
 C         3.907900         1.047811        -0.640049
 C         2.458306         0.978731        -0.535537
 O         1.968626        -0.284054        -1.209753
 H        -0.474391         1.030480         1.042769
 H        -0.158286         1.095510        -0.634479
 H        -0.502384        -0.416453         0.111685
 H         1.767035        -0.622553         2.054936
 H         1.466694        -1.974601         1.047697
 H         3.669856         0.459306         1.830700
 H         5.015525        -0.564844         2.125581
 H         5.869516         0.340137        -0.240202
 H         4.128139         1.460881        -1.626833
 H         2.040344         1.955703        -0.756465
