19
Iteration:  4188
 C         0.016750         0.344161         0.119634
 C         1.518623         0.037962         0.190123
 C         1.982966        -1.054565         1.052745
 O         3.316902        -1.531493         0.822072
 C         4.290458        -0.548553         1.223776
 C         4.839979         0.431031         0.203944
 C         3.913067         1.244558        -0.330905
 C         2.455969         1.105107        -0.369510
 O         2.023818        -0.182376        -1.184715
 H        -0.303767        -0.021259        -0.878089
 H        -0.466030        -0.151639         0.897806
 H        -0.334420         1.428976         0.110094
 H         1.991639        -0.665634         2.091090
 H         1.373182        -1.964924         0.961542
 H         3.837030         0.089862         1.888712
 H         5.087294        -0.933463         1.803432
 H         5.956945         0.560548        -0.199846
 H         4.284551         1.834500        -1.130376
 H         1.860367         1.999857        -0.773084
