19
Iteration:  3979charge 0 multiplicity 1
 C         0.068942         0.173952         0.187743
 C         1.566174         0.006004        -0.039585
 C         2.004845        -1.007478         1.076417
 O         3.305691        -1.580709         1.165159
 C         4.476395        -0.706006         1.262050
 C         4.689128         0.380740         0.230292
 C         3.898459         1.311859        -0.389901
 C         2.417814         1.179836        -0.568999
 O         1.903897         0.081673        -1.321496
 H        -0.308848         0.732640        -0.783811
 H        -0.371181        -0.909129         0.278457
 H        -0.152057         0.829825         1.057896
 H         1.685609        -0.401640         1.999393
 H         1.304467        -1.791879         0.947856
 H         4.574285        -0.278536         2.172661
 H         5.277699        -1.411564         1.262182
 H         5.733326         0.519811         0.124855
 H         4.486652         2.042507        -1.030762
 H         1.899740         2.065664        -0.578584
