19
Iteration:  2982
 C         0.002692         0.317104         0.135156
 C         1.475067         0.049488         0.121565
 C         2.023679        -0.999486         1.164720
 O         3.326590        -1.529275         0.972883
 C         4.463338        -0.690330         1.169734
 C         4.709051         0.467016         0.234349
 C         3.857880         1.252428        -0.392106
 C         2.445635         1.076439        -0.496363
 O         2.015373        -0.091682        -1.242347
 H        -0.202563         0.867334        -0.796909
 H        -0.519976        -0.612806        -0.111014
 H        -0.466042         0.868103         0.933643
 H         2.055872        -0.499383         2.099976
 H         1.403480        -1.861097         1.190455
 H         4.295000        -0.310395         2.298247
 H         5.301327        -1.469620         1.108987
 H         5.803864         0.653245         0.200140
 H         4.189014         2.115568        -0.882142
 H         1.889343         1.988255        -0.928962
