19
Iteration:  2369
 C         0.051064         0.397601         0.103612
 C         1.454605         0.058441         0.066620
 C         2.061074        -0.729831         1.206302
 O         3.280247        -1.278277         0.865421
 C         4.463982        -0.650916         1.226897
 C         4.763232         0.541262         0.327520
 C         3.868921         1.144493        -0.420910
 C         2.356060         0.895825        -0.593420
 O         1.983118        -0.507014        -1.111519
 H        -0.163219         1.385268         0.310090
 H        -0.425739         0.158501        -0.852314
 H        -0.575659        -0.228626         0.890367
 H         2.206689        -0.144992         2.081679
 H         1.419072        -1.585406         1.450516
 H         4.555632        -0.473733         2.320437
 H         5.253783        -1.477749         1.002457
 H         5.898212         0.926549         0.153299
 H         4.327906         1.890838        -1.104908
 H         2.004582         1.701957        -1.266595
