19
Iteration:  2602charge 0 multiplicity 1
 C         0.051038         0.394615         0.155234
 C         1.510149         0.004385         0.120932
 C         2.059091        -1.110565         1.163445
 O         3.339107        -1.430007         0.936854
 C         4.311969        -0.486901         1.274623
 C         4.789664         0.446947         0.241056
 C         3.921579         1.156365        -0.497938
 C         2.412388         1.022499        -0.526914
 O         1.937769        -0.200116        -1.223200
 H        -0.249647         0.059365         1.086555
 H        -0.187307         1.465955        -0.015877
 H        -0.442717        -0.017426        -0.627714
 H         1.918478        -0.694624         2.232036
 H         1.406661        -2.037579         0.988794
 H         4.061456         0.115136         2.207135
 H         5.271583        -1.218302         1.470614
 H         5.775986         0.806234         0.352941
 H         4.290944         1.883800        -1.242952
 H         2.001169         2.062097        -0.992289
