19
Iteration:  2943charge 0 multiplicity 1
 C         0.129546         0.363763         0.268327
 C         1.614260         0.060197         0.006601
 C         2.078051        -0.868625         1.104041
 O         3.265455        -1.499998         0.956966
 C         4.425618        -0.799088         1.100244
 C         4.565947         0.562768         0.453483
 C         3.797170         1.342424        -0.291435
 C         2.444984         1.017289        -0.704323
 O         1.980907        -0.333256        -1.293403
 H        -0.210177         1.439639        -0.048841
 H        -0.610769        -0.332618        -0.226676
 H         0.035870         0.345558         1.394875
 H         2.031383        -0.237232         2.113002
 H         1.317654        -1.691477         1.324927
 H         4.730931        -0.672795         2.090671
 H         5.192565        -1.384176         0.667906
 H         5.607508         0.981982         0.532577
 H         4.208271         2.335086        -0.536253
 H         2.031338         1.869563        -1.135283
