19
Iteration:  4232charge 0 multiplicity 1
 C         0.101579         0.295590         0.201966
 C         1.563948         0.055855         0.074254
 C         1.987933        -1.058980         1.088464
 O         3.269772        -1.509706         0.908469
 C         4.399046        -0.670042         1.263169
 C         4.716634         0.473790         0.320863
 C         3.867407         1.272665        -0.344879
 C         2.419111         1.093499        -0.515116
 O         2.005869        -0.082059        -1.284839
 H        -0.423643        -0.581063        -0.183413
 H        -0.189220         0.560691         1.183685
 H        -0.193137         1.140704        -0.528997
 H         1.825892        -0.717427         2.105556
 H         1.344369        -1.923410         0.833508
 H         4.345966        -0.366044         2.324205
 H         5.257464        -1.335068         1.126476
 H         5.889842         0.633638         0.197576
 H         4.154128         1.936408        -1.106007
 H         1.857192         2.049918        -0.950461
