19
Iteration:  3840charge 0 multiplicity 1
 C         0.133370         0.363096         0.256682
 C         1.555841         0.005346         0.039016
 C         2.056667        -0.903758         1.166378
 O         3.290111        -1.537123         0.914145
 C         4.405557        -0.720314         1.150724
 C         4.613586         0.497683         0.366843
 C         3.807133         1.333632        -0.340524
 C         2.375016         1.054788        -0.598662
 O         2.054949        -0.266928        -1.337011
 H        -0.191863         1.042349        -0.566287
 H        -0.608769        -0.461817         0.338178
 H         0.030566         1.048882         1.104179
 H         2.106538        -0.347939         2.183726
 H         1.338200        -1.786203         1.344814
 H         4.479294        -0.357950         2.134650
 H         5.327405        -1.355905         1.067376
 H         5.583780         0.865918         0.484622
 H         4.233468         2.227620        -0.864357
 H         1.761064         1.890044        -0.911621
