19
Iteration:  4685charge 0 multiplicity 1
 C         0.126938         0.514910         0.335476
 C         1.560137         0.021861         0.025943
 C         2.043692        -0.988498         1.019207
 O         3.338859        -1.558651         0.782055
 C         4.488894        -0.760899         1.255938
 C         4.576809         0.604576         0.596058
 C         3.856494         1.289258        -0.277012
 C         2.519474         0.925939        -0.761610
 O         1.829469        -0.257658        -1.392878
 H        -0.655079        -0.076850        -0.221512
 H        -0.145778         0.337893         1.377619
 H         0.153498         1.599980         0.054106
 H         2.150091        -0.445317         1.976931
 H         1.324947        -1.911324         1.053931
 H         4.401632        -0.444160         2.296342
 H         5.420724        -1.312537         1.209647
 H         5.376013         1.295299         1.118801
 H         4.197224         2.300743        -0.439537
 H         1.957416         1.893800        -0.957156
