19
Iteration:   327
 C         0.157080         0.466005         0.410414
 C         1.589105        -0.019187        -0.025676
 C         2.050802        -0.889027         1.156405
 O         3.332709        -1.472595         1.208339
 C         4.360012        -0.474289         1.319384
 C         4.606495         0.501271         0.208849
 C         3.854717         1.190187        -0.592995
 C         2.364648         0.952908        -0.860327
 O         1.977867        -0.435251        -1.313874
 H         0.325495         0.983754         1.360533
 H        -0.142655         1.272278        -0.300651
 H        -0.557703        -0.365010         0.555567
 H         1.849599        -0.241762         2.116590
 H         1.318634        -1.763736         1.169381
 H         4.241559         0.054747         2.312309
 H         5.333654        -1.078331         1.425984
 H         5.666887         0.787882         0.264228
 H         4.321159         1.821799        -1.217759
 H         1.825147         1.780377        -1.350783
