19
Iteration:   955
 C         0.187942         0.371380         0.269751
 C         1.574108         0.044551         0.036893
 C         2.052401        -0.682061         1.241311
 O         3.279066        -1.439711         1.002650
 C         4.351006        -0.626278         1.285868
 C         4.644591         0.533355         0.438095
 C         3.834301         1.220255        -0.576309
 C         2.445046         0.880263        -0.864800
 O         1.959859        -0.468547        -1.237425
 H         0.021943         1.218160         0.818802
 H        -0.222773         0.593035        -0.743284
 H        -0.370354        -0.440133         0.615395
 H         2.234020         0.038918         2.108645
 H         1.317226        -1.463202         1.657596
 H         4.298447        -0.285205         2.329344
 H         5.165580        -1.260627         1.168292
 H         5.584614         1.059156         0.421859
 H         4.179501         2.041701        -1.173618
 H         1.841436         1.594710        -1.375205
