19
Iteration:   839charge 0 multiplicity 1
 C         0.142638         0.203926         0.403334
 C         1.546389         0.091092         0.003463
 C         2.039026        -0.759620         1.136959
 O         3.304488        -1.375894         1.135220
 C         4.348471        -0.467153         1.452011
 C         4.761320         0.435227         0.330752
 C         3.913792         0.980321        -0.650617
 C         2.472110         0.957709        -0.891239
 O         1.846352        -0.231147        -1.370858
 H         0.028592         0.379972         1.509621
 H        -0.535664         1.000234        -0.091682
 H        -0.373093        -0.756785         0.108401
 H         1.718665        -0.282582         2.107484
 H         1.402887        -1.640473         1.137326
 H         4.136344         0.103776         2.364243
 H         5.269875        -1.108691         1.726920
 H         5.771237         0.765695         0.134639
 H         4.379016         1.551848        -1.370374
 H         2.049052         1.876600        -1.235171
