19
Iteration:  4718charge 0 multiplicity 1
 C         0.078037         0.568746         0.302702
 C         1.549174         0.045954         0.078060
 C         2.037012        -1.048761         1.001121
 O         3.330580        -1.456965         0.581353
 C         4.406454        -0.717596         1.241449
 C         4.535366         0.590468         0.618742
 C         3.863246         1.256130        -0.311329
 C         2.463917         0.953022        -0.674422
 O         2.040491        -0.353024        -1.190596
 H        -0.693428        -0.260251         0.223884
 H         0.111831         1.133465         1.265217
 H        -0.120534         1.377244        -0.491331
 H         1.909506        -0.711638         2.087897
 H         1.314773        -1.987237         1.094976
 H         4.272744        -0.763440         2.379294
 H         5.301319        -1.324433         1.103849
 H         5.545334         1.153299         0.886669
 H         4.291380         2.161903        -0.753373
 H         1.880275         1.871914        -1.095644
