19
Iteration:  4040
 C         0.064632         0.364454         0.267814
 C         1.539119         0.062736         0.108182
 C         2.054434        -1.043441         1.029685
 O         3.377782        -1.504110         0.782638
 C         4.329191        -0.552649         1.382118
 C         4.769989         0.507175         0.436966
 C         3.945493         1.141209        -0.452907
 C         2.485044         1.070772        -0.529030
 O         1.812498        -0.167469        -1.316432
 H        -0.152912         1.206931        -0.292782
 H        -0.574010        -0.363290        -0.232576
 H        -0.308192         0.414044         1.280635
 H         1.934862        -0.859320         2.072862
 H         1.460139        -1.983066         0.668838
 H         3.846555        -0.108916         2.273268
 H         5.231282        -1.110929         1.671945
 H         5.839351         0.502030         0.151492
 H         4.421394         1.826712        -1.116036
 H         1.949509         2.093892        -0.813028
