19
Iteration:   497charge 0 multiplicity 1
 C         0.039852         0.455608         0.175369
 C         1.439395        -0.002291         0.053561
 C         2.010543        -0.837906         1.226448
 O         3.360870        -1.291095         0.875597
 C         4.494461        -0.513338         1.359655
 C         4.855520         0.571641         0.377144
 C         3.919382         1.071956        -0.506270
 C         2.447225         0.818344        -0.646966
 O         1.764155        -0.470756        -1.236990
 H        -0.092415         1.433364         0.756262
 H        -0.288099         0.640632        -0.819404
 H        -0.657785        -0.328811         0.613970
 H         2.060548        -0.108397         2.096415
 H         1.452143        -1.735584         1.268992
 H         4.394494        -0.180857         2.360976
 H         5.316248        -1.368952         1.307773
 H         5.840634         0.969888         0.320328
 H         4.360842         1.858730        -1.356607
 H         2.077013         1.707068        -1.191123
