19
Iteration:  4885
 C         0.172102         0.538658         0.419440
 C         1.563316        -0.011298         0.026131
 C         2.058467        -1.130513         0.978170
 O         3.360483        -1.484813         0.640186
 C         4.356633        -0.706474         1.321064
 C         4.644137         0.624475         0.669742
 C         3.922157         1.226295        -0.237843
 C         2.447304         0.931558        -0.754976
 O         1.839302        -0.181285        -1.430309
 H         0.057565         1.529890         0.946803
 H        -0.204669         0.525758        -0.581933
 H        -0.327754        -0.203340         1.011603
 H         1.876721        -0.960481         1.984865
 H         1.375853        -2.064579         0.830959
 H         3.953996        -0.491882         2.317237
 H         5.315055        -1.093675         1.515234
 H         5.532639         1.092347         0.993246
 H         4.218271         2.196621        -0.606743
 H         1.982861         1.924589        -0.809649
