19
Iteration:  1082charge 0 multiplicity 1
 C         0.078937         0.283971         0.053562
 C         1.550726         0.087054         0.095517
 C         2.003252        -0.630676         1.358971
 O         3.202776        -1.372818         1.198119
 C         4.424363        -0.684309         1.097477
 C         4.717301         0.458485         0.240766
 C         3.841169         1.235223        -0.476242
 C         2.394616         0.910424        -0.768139
 O         2.098609        -0.425075        -1.214326
 H        -0.323401         0.650665         1.099625
 H        -0.351244         0.974536        -0.715003
 H        -0.441299        -0.729153        -0.029272
 H         2.126916         0.036573         2.297237
 H         1.236315        -1.374042         1.625984
 H         4.689354        -0.315481         2.116799
 H         5.278231        -1.483773         0.965356
 H         5.816693         0.701068         0.185366
 H         4.086113         2.156805        -1.067921
 H         1.882218         1.696159        -1.392213
