19
Iteration:    69
 C         0.118150         0.377759         0.155048
 C         1.549798        -0.022399         0.022625
 C         2.135309        -0.622943         1.288924
 O         3.255583        -1.446128         1.110135
 C         4.511852        -0.723581         1.185758
 C         4.673888         0.541548         0.306074
 C         3.755158         1.247772        -0.399319
 C         2.329421         0.972601        -0.697412
 O         1.968487        -0.467071        -1.332812
 H         0.035706         1.261139         0.675359
 H        -0.435585         0.598950        -0.886078
 H        -0.476341        -0.279887         0.680172
 H         2.212981         0.107617         2.163542
 H         1.323472        -1.311099         1.582562
 H         4.734742        -0.513351         2.231174
 H         5.282900        -1.480296         0.874123
 H         5.719319         0.935323         0.302624
 H         4.224593         1.766853        -1.175759
 H         1.852166         1.740632        -1.180008
