19
Iteration:   549charge 0 multiplicity 1
 C         0.111892         0.391496         0.189773
 C         1.572923         0.013935         0.066884
 C         1.997457        -0.842991         1.232984
 O         3.247524        -1.421118         1.135122
 C         4.453935        -0.631849         1.248349
 C         4.656388         0.556660         0.244876
 C         3.887961         1.242335        -0.577520
 C         2.374455         0.972991        -0.768277
 O         2.040430        -0.420352        -1.177739
 H         0.127515         1.167879         1.047914
 H        -0.262094         0.751535        -0.795901
 H        -0.556166        -0.445564         0.537522
 H         1.697646        -0.271796         2.126781
 H         1.325506        -1.736372         1.085276
 H         4.439416        -0.050261         2.253975
 H         5.211469        -1.485347         1.229463
 H         5.717794         0.739014         0.100801
 H         4.296377         2.022791        -1.356965
 H         1.683629         1.807898        -1.142632
