19
Iteration:   332
 C         0.117134         0.454901         0.400168
 C         1.570304        -0.017727        -0.043238
 C         2.058910        -0.880854         1.173085
 O         3.338292        -1.484130         1.192945
 C         4.361476        -0.479926         1.331385
 C         4.631259         0.538361         0.263066
 C         3.831079         1.142267        -0.629377
 C         2.395203         0.979936        -0.813165
 O         1.962489        -0.422946        -1.314456
 H         0.387630         0.930912         1.362564
 H        -0.219055         1.237512        -0.313869
 H        -0.570334        -0.380548         0.524511
 H         2.062517        -0.265196         2.031517
 H         1.383624        -1.692185         1.204387
 H         4.171488         0.106347         2.262440
 H         5.293222        -1.054326         1.426963
 H         5.723545         0.677418         0.158789
 H         4.423478         1.831858        -1.440816
 H         1.889612         1.739645        -1.412400
