19
Iteration:  4300charge 0 multiplicity 1
 C         0.137486         0.512864         0.328241
 C         1.534030         0.017086         0.003894
 C         2.089000        -0.943301         1.002185
 O         3.362132        -1.483074         0.645101
 C         4.399972        -0.765600         1.207785
 C         4.547799         0.574382         0.653107
 C         3.865101         1.220718        -0.263357
 C         2.446382         0.992847        -0.644640
 O         1.930465        -0.303156        -1.266767
 H        -0.360753        -0.148672         1.016371
 H         0.076146         1.637210         0.562506
 H        -0.467735         0.369569        -0.590587
 H         2.099385        -0.403825         1.973255
 H         1.453413        -1.779367         0.943998
 H         4.430168        -0.868624         2.349276
 H         5.265194        -1.364078         0.779093
 H         5.331705         1.219145         1.229173
 H         4.236327         2.223737        -0.589331
 H         1.963506         1.852923        -1.143227
