19
Iteration:  1563
 C         0.105516         0.386266         0.141037
 C         1.600230         0.065488         0.106655
 C         2.002946        -0.649202         1.358027
 O         3.217730        -1.414497         1.045774
 C         4.399219        -0.673163         1.133487
 C         4.629647         0.562381         0.300854
 C         3.770077         1.259975        -0.499576
 C         2.418360         0.871703        -0.846331
 O         2.107254        -0.545214        -1.117701
 H        -0.125339         0.678646         1.205253
 H         0.111916         1.255089        -0.545777
 H        -0.427488        -0.456794        -0.157993
 H         2.078711        -0.023536         2.283951
 H         1.338632        -1.520698         1.519750
 H         4.664150        -0.480727         2.173678
 H         5.249961        -1.331674         0.774027
 H         5.668156         0.971528         0.282298
 H         4.151270         2.120875        -1.153174
 H         1.920714         1.723628        -1.510738
