19
Iteration:   173charge 0 multiplicity 1
 C         0.107504         0.447842        -0.012011
 C         1.561562         0.046680         0.085204
 C         2.121725        -0.682842         1.360070
 O         3.301098        -1.546709         1.318492
 C         4.448279        -0.708569         1.023307
 C         4.627324         0.509713         0.201043
 C         3.714739         1.374796        -0.413729
 C         2.421833         0.911920        -0.778437
 O         1.977176        -0.500996        -1.165676
 H        -0.381792         0.699728         1.032533
 H        -0.025302         1.281272        -0.650339
 H        -0.622679        -0.299943        -0.531399
 H         2.426705         0.076693         2.054419
 H         1.336127        -1.337584         1.753174
 H         4.795464        -0.292019         1.933825
 H         5.262015        -1.558438         0.660198
 H         5.614082         0.898971         0.170167
 H         4.064557         2.131165        -1.065181
 H         1.985766         1.826532        -1.328264
