19
Iteration:  3648
 C         0.098343         0.330453         0.310356
 C         1.498153         0.077417         0.078211
 C         1.999761        -1.021210         1.031675
 O         3.332476        -1.427863         0.759070
 C         4.377553        -0.614629         1.309032
 C         4.806665         0.529492         0.439158
 C         3.946188         1.164433        -0.385498
 C         2.455991         0.979566        -0.565418
 O         1.852664        -0.180612        -1.350718
 H        -0.493555         0.957137        -0.448386
 H        -0.450174        -0.659547         0.502657
 H        -0.135719         0.858228         1.261565
 H         1.995865        -0.708182         2.103674
 H         1.344237        -1.890345         0.944533
 H         4.191889        -0.229126         2.260537
 H         5.263193        -1.376165         1.532835
 H         5.844360         0.868142         0.518430
 H         4.211493         2.045787        -0.891746
 H         2.020524         1.998526        -0.899535
