19
Iteration:  2114
 C         0.162691         0.614473         0.243542
 C         1.493801        -0.011268         0.119423
 C         2.007271        -0.999445         1.161813
 O         3.367555        -1.344115         0.789918
 C         4.347207        -0.423584         1.327073
 C         4.685285         0.619107         0.426972
 C         3.892367         1.067657        -0.577503
 C         2.449991         0.840637        -0.675302
 O         1.910620        -0.537665        -1.189819
 H         0.044345         1.245326         1.144995
 H        -0.051544         1.111722        -0.748744
 H        -0.836318        -0.097207         0.348856
 H         1.938919        -0.461768         2.205964
 H         1.518246        -1.977756         1.269618
 H         4.046277        -0.023201         2.346547
 H         5.308312        -1.068888         1.508214
 H         5.765034         0.946897         0.479832
 H         4.326579         1.736708        -1.352202
 H         1.971865         1.668233        -1.080283
