19
Iteration:  1556charge 0 multiplicity 1
 C         0.129096         0.392883         0.148947
 C         1.560328         0.033024         0.083348
 C         2.086055        -0.649768         1.297254
 O         3.212095        -1.357757         1.073533
 C         4.411608        -0.751994         1.159073
 C         4.618318         0.591637         0.322445
 C         3.809073         1.223118        -0.533750
 C         2.391682         0.892870        -0.802202
 O         2.077637        -0.517840        -1.147411
 H        -0.194715         0.566419         1.205805
 H        -0.168123         1.214731        -0.492124
 H        -0.470850        -0.478344        -0.321133
 H         2.228900         0.100608         2.099009
 H         1.356319        -1.472461         1.681898
 H         4.778571        -0.466146         2.205687
 H         5.160629        -1.448702         0.920080
 H         5.605002         1.016367         0.468369
 H         4.139124         2.127333        -1.165861
 H         1.800128         1.533784        -1.472618
