19
Iteration:  1781charge 0 multiplicity 1
 C         0.048351         0.305224         0.408635
 C         1.512092         0.066528        -0.014017
 C         2.034231        -0.870516         1.118103
 O         3.425452        -1.367534         1.144964
 C         4.313288        -0.411615         1.471586
 C         4.761614         0.472695         0.347851
 C         4.043850         0.869664        -0.688943
 C         2.445721         0.921551        -0.848631
 O         1.776990        -0.204865        -1.425304
 H        -0.079270         0.262321         1.597443
 H        -0.407018         1.230723         0.033656
 H        -0.458703        -0.599668         0.204850
 H         1.864392        -0.279483         2.094303
 H         1.468759        -1.771045         1.105192
 H         3.932809         0.266448         2.236068
 H         5.268068        -0.903023         1.918078
 H         5.792283         0.755250         0.354380
 H         4.379489         1.589375        -1.511196
 H         2.036763         1.837073        -1.050023
