19
Iteration:  4499
 C         0.155764         0.550606         0.467660
 C         1.511178         0.031958        -0.013615
 C         2.046267        -1.162837         0.866530
 O         3.402678        -1.478376         0.670460
 C         4.304996        -0.666539         1.393685
 C         4.632272         0.659857         0.653407
 C         3.916156         1.159494        -0.352337
 C         2.468370         0.970179        -0.686072
 O         1.898425        -0.235833        -1.384122
 H        -0.216402        -0.151018         1.269128
 H         0.317082         1.450472         1.127655
 H        -0.639652         0.839269        -0.232332
 H         1.944334        -0.703037         1.907977
 H         1.322972        -1.988507         0.688050
 H         3.946130        -0.600244         2.397917
 H         5.195752        -1.326438         1.606576
 H         5.597591         1.093841         0.811750
 H         4.295278         1.945859        -0.938751
 H         1.947734         1.824407        -1.148162
