19
Iteration:  4750charge 0 multiplicity 1
 C         0.063144         0.385601         0.229086
 C         1.544531         0.027290         0.009968
 C         1.983604        -1.025643         1.018007
 O         3.295222        -1.506118         0.778045
 C         4.485167        -0.668888         1.253919
 C         4.792297         0.516636         0.514393
 C         3.892494         1.265642        -0.195164
 C         2.460708         0.998876        -0.574054
 O         1.880255        -0.159935        -1.337376
 H        -0.593535        -0.347314         0.769914
 H        -0.128677         1.417027         0.657499
 H        -0.540260         0.390667        -0.732669
 H         1.846535        -0.383266         1.922675
 H         1.237955        -1.950752         1.006820
 H         4.217715        -0.585883         2.341052
 H         5.258584        -1.403117         1.020872
 H         5.921390         0.872764         0.548855
 H         4.360564         2.128901        -0.696097
 H         1.897018         1.996005        -0.927764
