19
Iteration:  3173
 C         0.073097         0.295561         0.254792
 C         1.487720         0.013640         0.031607
 C         2.038748        -1.145368         0.998203
 O         3.392870        -1.440004         0.950779
 C         4.373853        -0.538620         1.393144
 C         4.805481         0.410027         0.257935
 C         3.898692         1.098742        -0.473603
 C         2.405200         1.065312        -0.433775
 O         1.895200         0.043988        -1.336683
 H        -0.421986         0.920443        -0.561534
 H        -0.675688        -0.623713         0.389154
 H        -0.037737         0.901298         1.288724
 H         1.641282        -0.884883         2.150736
 H         1.564327        -2.068893         0.697644
 H         3.958266         0.000718         2.205080
 H         5.185997        -1.099913         1.757610
 H         5.843978         0.540474         0.088316
 H         4.288558         1.685182        -1.321797
 H         2.001218         2.055368        -0.820528
