19
Iteration:  1501
 C         0.039861         0.204145         0.132169
 C         1.488216         0.092249        -0.034384
 C         2.081858        -0.465170         1.243068
 O         3.323263        -1.333048         1.077447
 C         4.572004        -0.737177         1.289149
 C         4.744044         0.444184         0.384093
 C         3.835686         1.041035        -0.495850
 C         2.418275         0.961164        -0.763348
 O         1.837873        -0.409401        -1.264217
 H        -0.433002         0.520994         1.074024
 H        -0.470962         0.918904        -0.481156
 H        -0.537874        -0.708265        -0.167612
 H         2.227977         0.321953         1.958429
 H         1.353526        -1.178947         1.753316
 H         4.822912        -0.284261         2.311353
 H         5.324407        -1.472186         0.986216
 H         5.708739         0.940207         0.591336
 H         4.345397         2.052240        -0.810375
 H         1.864305         1.749488        -1.245132
