19
Iteration:  4026
 C         0.020882         0.286649         0.222737
 C         1.510968         0.033583        -0.017884
 C         2.070932        -1.060386         1.042910
 O         3.427958        -1.492786         0.909122
 C         4.374776        -0.618750         1.424749
 C         4.744469         0.422244         0.363451
 C         3.905580         1.110004        -0.467947
 C         2.395547         1.135063        -0.495932
 O         1.858149         0.013632        -1.344569
 H        -0.382730         1.213173        -0.278477
 H        -0.495963        -0.613049        -0.025502
 H        -0.069446         0.475902         1.363386
 H         1.957700        -0.455892         1.971896
 H         1.414812        -1.880364         1.096859
 H         4.118550        -0.265930         2.337053
 H         5.273264        -1.297409         1.648201
 H         5.906465         0.573138         0.263480
 H         4.412649         1.611751        -1.323905
 H         1.954745         2.084232        -0.914872
