19
Iteration:   523charge 0 multiplicity 1
 C        -0.005775         0.467294         0.124980
 C         1.467341         0.131631         0.183176
 C         2.105886        -0.880912         1.287377
 O         3.327854        -1.397302         0.827114
 C         4.345326        -0.505425         1.252886
 C         4.740872         0.511761         0.306401
 C         3.907768         1.109941        -0.554763
 C         2.430349         0.837979        -0.735108
 O         1.997435        -0.444756        -1.069004
 H        -0.248484         1.310033         0.672822
 H        -0.265850         0.536003        -0.974656
 H        -0.561882        -0.342885         0.519953
 H         2.274614        -0.264910         2.186234
 H         1.417018        -1.772862         1.332599
 H         4.092375         0.075138         2.241092
 H         5.090199        -1.152879         1.475653
 H         5.808881         0.883069         0.371491
 H         4.220165         1.928207        -1.026241
 H         2.015052         1.671341        -1.265008
