19
Iteration:  1763charge 0 multiplicity 1
 C         0.023186         0.375727         0.465286
 C         1.542517         0.061273         0.038536
 C         2.058550        -0.938049         1.054607
 O         3.332512        -1.391334         1.027873
 C         4.363220        -0.303320         1.551818
 C         4.714118         0.580917         0.330228
 C         3.966356         0.882301        -0.687523
 C         2.534349         0.849012        -0.785715
 O         1.837815        -0.254485        -1.379185
 H         0.011760         0.477639         1.527436
 H        -0.319386         1.236319        -0.082133
 H        -0.647072        -0.443033         0.095210
 H         1.832273        -0.551699         2.055269
 H         1.438239        -1.883724         1.125326
 H         3.845447         0.067618         2.493864
 H         5.249196        -0.917555         1.630818
 H         5.765741         0.770482         0.225157
 H         4.471382         1.171388        -1.609487
 H         2.145585         1.786946        -1.409475
