19
Iteration:   142
 C        -0.030740         0.297246         0.095321
 C         1.491947         0.055792         0.054137
 C         2.058888        -0.547318         1.389172
 O         3.238654        -1.253181         1.042758
 C         4.532976        -0.793616         1.054939
 C         4.679466         0.483406         0.283957
 C         3.829957         1.153458        -0.440893
 C         2.390047         0.896392        -0.763565
 O         2.109059        -0.474728        -1.127331
 H        -0.412464         0.518346         1.137725
 H        -0.282952         1.261016        -0.437774
 H        -0.718187        -0.495023        -0.318611
 H         2.224154         0.264302         2.131775
 H         1.402372        -1.328363         1.746879
 H         4.896907        -0.568424         2.111257
 H         5.139743        -1.683062         0.679226
 H         5.596864         0.930867         0.503773
 H         4.215217         1.979728        -0.905829
 H         1.891936         1.691195        -1.325146
