19
Iteration:  4927charge 0 multiplicity 1
 C         0.199271         0.469905         0.476305
 C         1.608254         0.078766        -0.016629
 C         2.042283        -1.073482         0.919731
 O         3.399156        -1.490154         0.759233
 C         4.420952        -0.750989         1.349989
 C         4.534328         0.600126         0.686038
 C         3.802868         1.158485        -0.286734
 C         2.392441         0.988172        -0.753084
 O         1.923171        -0.154612        -1.490037
 H         0.147543         1.132378         1.324901
 H        -0.285797         0.987334        -0.271859
 H        -0.415569        -0.386197         0.721677
 H         1.774420        -0.657617         1.958562
 H         1.276485        -1.929014         0.761775
 H         4.354276        -0.601491         2.451344
 H         5.258460        -1.416381         1.290463
 H         5.472189         1.055331         0.832015
 H         4.321572         2.026472        -0.656879
 H         1.882672         1.926294        -1.202480
