19
Iteration:   753charge 0 multiplicity 1
 C         0.028310         0.389442         0.349185
 C         1.495359         0.105230         0.040995
 C         2.020945        -0.810213         1.136727
 O         3.283733        -1.408065         0.921760
 C         4.394172        -0.493228         1.407973
 C         4.800451         0.595005         0.346510
 C         3.939598         1.086327        -0.578701
 C         2.440149         0.832200        -0.786839
 O         1.928268        -0.430961        -1.230445
 H        -0.117821         1.263807         0.974300
 H        -0.323908         0.582071        -0.683095
 H        -0.419448        -0.541221         0.698628
 H         1.925943        -0.264536         2.119119
 H         1.416552        -1.719879         1.126471
 H         3.997708        -0.011008         2.323038
 H         5.254901        -1.214804         1.730544
 H         5.846793         0.903573         0.317212
 H         4.512289         1.774316        -1.296489
 H         2.031412         1.662602        -1.322054
