19
Iteration:  1760charge 0 multiplicity 1
 C         0.044536         0.407117         0.430282
 C         1.544235         0.042690         0.028600
 C         2.049779        -0.946642         1.060639
 O         3.339886        -1.376279         1.015918
 C         4.336028        -0.320570         1.549699
 C         4.731416         0.595502         0.341988
 C         3.970892         0.884933        -0.677698
 C         2.511714         0.856462        -0.791001
 O         1.838340        -0.273752        -1.351453
 H        -0.043095         0.471091         1.623190
 H        -0.258185         1.309703        -0.086660
 H        -0.533182        -0.452943         0.197395
 H         1.778607        -0.550357         2.113910
 H         1.536787        -1.877196         1.019468
 H         3.826635        -0.005610         2.410568
 H         5.322616        -0.942348         1.670148
 H         5.743830         0.791749         0.162632
 H         4.359189         1.201033        -1.747487
 H         2.097810         1.697512        -1.266959
