19
Iteration:  3105charge 0 multiplicity 1
 C         0.275122         0.621305         0.524158
 C         1.544579        -0.005825         0.008375
 C         2.053857        -1.189617         0.895330
 O         3.432315        -1.540476         0.794171
 C         4.242840        -0.577019         1.377619
 C         4.593082         0.699030         0.560579
 C         3.857976         1.214753        -0.463945
 C         2.453277         0.849517        -0.649214
 O         1.848858        -0.247145        -1.428824
 H         0.102907         1.630875        -0.056613
 H        -0.681318         0.024396         0.540805
 H         0.502046         0.953672         1.549478
 H         1.740985        -1.061991         2.028450
 H         1.580630        -2.108231         0.597489
 H         3.957446        -0.283058         2.347500
 H         5.116609        -1.203922         1.533058
 H         5.616285         1.000774         0.781352
 H         4.336074         1.981443        -1.131431
 H         1.925522         1.788652        -1.044558
