19
Iteration:  3856charge 0 multiplicity 1
 C         0.127087         0.448484         0.320535
 C         1.597517        -0.040239         0.010007
 C         2.124011        -0.901870         1.161290
 O         3.302726        -1.590061         0.929279
 C         4.405252        -0.757985         1.168466
 C         4.603895         0.634683         0.486913
 C         3.795021         1.296806        -0.370171
 C         2.417717         0.952780        -0.783409
 O         1.941518        -0.216582        -1.368088
 H        -0.204751         1.112177        -0.473892
 H        -0.606194        -0.562063         0.398648
 H         0.170471         0.829590         1.366630
 H         2.177877        -0.172276         1.960085
 H         1.301069        -1.601124         1.342121
 H         4.509415        -0.711213         2.346465
 H         5.287075        -1.368694         0.963915
 H         5.575190         1.093960         0.914978
 H         4.131804         2.302972        -0.485200
 H         1.848409         1.856769        -1.207409
