19
Iteration:   645
 C         0.039354         0.323105         0.142510
 C         1.508277         0.052874         0.085411
 C         1.985085        -0.766220         1.334183
 O         3.212772        -1.295281         0.878980
 C         4.369310        -0.569363         1.168746
 C         4.763128         0.503865         0.281562
 C         3.951222         1.194923        -0.514142
 C         2.497883         0.907529        -0.731676
 O         2.034931        -0.509511        -1.036826
 H        -0.225381         0.553420         1.159287
 H        -0.272745         1.101273        -0.541449
 H        -0.499663        -0.554168        -0.123467
 H         2.041003        -0.096978         2.252927
 H         1.156905        -1.531040         1.518416
 H         4.163001        -0.141374         2.141747
 H         5.140662        -1.232811         1.320745
 H         5.809189         0.827250         0.228912
 H         4.329660         1.995427        -1.201653
 H         1.971398         1.662243        -1.383566
