19
Iteration:  4120
 C         0.195813         0.453963         0.443814
 C         1.558834         0.009468        -0.050569
 C         2.078191        -1.101789         0.940225
 O         3.442304        -1.495280         0.927548
 C         4.373097        -0.658871         1.453330
 C         4.628116         0.550054         0.569291
 C         3.900359         1.152638        -0.451636
 C         2.476095         0.985410        -0.849393
 O         1.704331        -0.114270        -1.428932
 H        -0.197758         1.107282        -0.389365
 H        -0.428009        -0.428689         0.606183
 H         0.116610         1.097078         1.273533
 H         1.849577        -0.631559         1.899702
 H         1.440305        -2.099366         0.883693
 H         4.153214        -0.306657         2.436004
 H         5.241428        -1.213726         1.672550
 H         5.494476         1.016353         0.972272
 H         4.495772         1.990864        -0.929524
 H         1.905800         2.001133        -1.037464
