19
Iteration:  3320charge 0 multiplicity 1
 C         0.172607         0.532718         0.375413
 C         1.537225         0.045195         0.054184
 C         2.073916        -1.014270         1.037314
 O         3.359853        -1.586995         0.790399
 C         4.415990        -0.732136         1.157040
 C         4.543661         0.674753         0.560501
 C         3.811683         1.346601        -0.304061
 C         2.404260         0.886776        -0.779994
 O         1.965901        -0.350856        -1.333405
 H        -0.173473         1.377140        -0.417943
 H        -0.691758        -0.136606         0.660194
 H         0.304428         1.217476         1.376067
 H         2.126275        -0.650518         2.093960
 H         1.317999        -1.779443         1.200886
 H         4.474283        -0.416396         2.289095
 H         5.332757        -1.310305         1.026236
 H         5.477269         1.073059         0.937840
 H         4.051411         2.436854        -0.571230
 H         2.001922         1.776783        -1.087046
