19
Iteration:  3597
 C         0.126950         0.297293         0.163119
 C         1.654036         0.044356         0.111163
 C         2.069204        -1.046692         1.044525
 O         3.344910        -1.599030         1.119643
 C         4.460621        -0.688562         1.233843
 C         4.655046         0.358096         0.164360
 C         3.777706         1.282558        -0.303041
 C         2.376686         1.120560        -0.533511
 O         1.897963         0.030443        -1.374846
 H        -0.217707         0.668558        -0.901001
 H        -0.599442        -0.549705         0.425556
 H        -0.227688         0.928637         1.004746
 H         1.858131        -0.553891         2.105733
 H         1.399321        -1.914613         0.914907
 H         4.245381         0.109772         2.144434
 H         5.239302        -1.211579         1.589928
 H         5.784059         0.585702        -0.003125
 H         4.177982         2.075454        -0.945335
 H         1.959978         2.021363        -0.775380
