19
Iteration:  3266
 C        -0.026841         0.383506         0.304231
 C         1.421121        -0.001278         0.071686
 C         2.062437        -1.000285         1.109639
 O         3.344603        -1.387569         0.663241
 C         4.437951        -0.622041         1.303055
 C         4.817188         0.591214         0.533841
 C         3.977018         1.092832        -0.397752
 C         2.484173         0.942964        -0.593401
 O         1.811028        -0.192796        -1.300359
 H        -0.224768         1.282051        -0.408932
 H        -0.584540        -0.427380        -0.191271
 H        -0.330001         0.420269         1.422190
 H         2.229319        -0.426895         2.133386
 H         1.433069        -1.969990         1.193654
 H         4.261606        -0.263847         2.257862
 H         5.314390        -1.359276         1.325642
 H         5.813997         1.017051         0.623022
 H         4.272027         1.987660        -1.060912
 H         2.189890         1.857003        -1.044156
