19
Iteration:  1938
 C         0.112369         0.502016         0.208346
 C         1.541620         0.013010         0.025898
 C         2.080817        -0.673489         1.273007
 O         3.302471        -1.470809         1.067364
 C         4.468748        -0.623698         1.204819
 C         4.618694         0.580869         0.367321
 C         3.790841         1.218056        -0.444252
 C         2.452328         0.793727        -0.864613
 O         1.914077        -0.530201        -1.283346
 H         0.060066         1.251071         0.976586
 H        -0.086827         1.044404        -0.756263
 H        -0.649962        -0.371803         0.300696
 H         2.277873        -0.095242         2.152526
 H         1.434202        -1.487908         1.597232
 H         4.896511        -0.347722         2.225224
 H         5.361987        -1.244390         0.878746
 H         5.394637         1.281274         0.906979
 H         4.076405         2.215436        -0.606902
 H         1.925671         1.501171        -1.426973
