19
Iteration:  4157charge 0 multiplicity 1
 C         0.037355         0.314462         0.315914
 C         1.513418         0.018040         0.022505
 C         1.997274        -1.067377         0.970745
 O         3.359454        -1.435518         0.931382
 C         4.389580        -0.621764         1.380116
 C         4.735359         0.459205         0.393347
 C         3.928761         1.094601        -0.462918
 C         2.417561         1.066712        -0.574065
 O         1.944978        -0.039467        -1.359091
 H        -0.486498         0.231289        -0.628635
 H        -0.458301        -0.396474         0.982566
 H        -0.053083         1.332761         0.830971
 H         1.839577        -0.557926         2.015098
 H         1.479488        -1.950534         0.905960
 H         4.071428        -0.158178         2.384352
 H         5.295501        -1.287980         1.426049
 H         5.792080         0.965502         0.355782
 H         4.341332         1.766938        -1.170801
 H         2.023464         1.964582        -0.770995
