19
Iteration:  4626charge 0 multiplicity 1
 C        -0.008353         0.193628         0.083845
 C         1.532826         0.070945         0.089370
 C         2.064753        -0.988546         1.185309
 O         3.295912        -1.517246         0.908765
 C         4.366003        -0.657532         1.224893
 C         4.785470         0.389065         0.256889
 C         3.925459         1.216948        -0.414777
 C         2.460322         1.124022        -0.486743
 O         1.968335        -0.019735        -1.228791
 H        -0.459466        -0.060346        -0.882706
 H        -0.554141        -0.305833         0.983923
 H        -0.323409         1.215672         0.299142
 H         1.938961        -0.683536         2.269588
 H         1.309506        -1.823841         1.081733
 H         3.952520        -0.022696         1.989486
 H         5.141658        -1.342911         1.652894
 H         5.766384         0.669364         0.181045
 H         4.407441         2.106855        -0.864950
 H         2.026322         2.132635        -0.815772
