19
Iteration:  2555
 C         0.132788         0.395108         0.336638
 C         1.550764        -0.009867        -0.038229
 C         2.040594        -0.859956         1.139249
 O         3.361503        -1.436696         1.020344
 C         4.468701        -0.705763         1.272668
 C         4.587110         0.533257         0.434497
 C         3.837494         1.172184        -0.453068
 C         2.364369         1.021157        -0.822262
 O         1.942145        -0.314555        -1.348936
 H        -0.375731        -0.450509         0.761289
 H         0.228268         1.181113         1.157446
 H        -0.426436         0.970456        -0.499689
 H         1.925588        -0.313401         2.135213
 H         1.395702        -1.773857         1.140510
 H         4.479861        -0.248307         2.336461
 H         5.286865        -1.535266         1.274793
 H         5.612050         1.066162         0.568402
 H         4.212548         2.147808        -0.691555
 H         1.965422         1.887855        -1.326824
