19
Iteration:  2612
 C        -0.011532         0.351504         0.180403
 C         1.528159         0.019662         0.157307
 C         2.006708        -1.029694         1.115944
 O         3.361334        -1.392792         0.842748
 C         4.340445        -0.442415         1.322844
 C         4.796751         0.418136         0.228161
 C         3.908787         1.101828        -0.459797
 C         2.459717         0.963913        -0.529251
 O         1.960464        -0.169246        -1.218608
 H        -0.451212         0.252207         1.136520
 H        -0.156257         1.443695        -0.110313
 H        -0.519438        -0.353255        -0.437190
 H         1.863539        -0.827054         2.216239
 H         1.449239        -1.996514         0.916089
 H         4.010693         0.151403         2.263521
 H         5.156410        -1.166670         1.787510
 H         5.834249         0.654339         0.101717
 H         4.328250         1.748300        -1.228388
 H         1.937936         1.966694        -0.780498
