19
Iteration:  2818charge 0 multiplicity 1
 C         0.136468         0.276452         0.211143
 C         1.659513        -0.032973         0.039397
 C         2.013500        -0.997860         1.160608
 O         3.225648        -1.565559         1.110508
 C         4.413838        -0.759134         1.073745
 C         4.583241         0.460202         0.234574
 C         3.829372         1.342054        -0.303667
 C         2.362127         1.122170        -0.551905
 O         2.081675        -0.059218        -1.336378
 H        -0.193024         0.449589        -0.872008
 H        -0.577806        -0.578551         0.628128
 H        -0.089467         1.324031         0.739848
 H         1.878636        -0.217352         2.061550
 H         1.399760        -1.888830         1.171465
 H         4.662535        -0.141147         2.138266
 H         5.237043        -1.407216         0.816828
 H         5.595170         0.706111         0.327839
 H         4.295621         2.228616        -0.854802
 H         1.843851         2.060398        -0.864892
