19
Iteration:  2557
 C         0.127623         0.410015         0.334348
 C         1.552822         0.001621        -0.029464
 C         2.037407        -0.873033         1.135444
 O         3.379163        -1.443871         1.037791
 C         4.444224        -0.696818         1.265192
 C         4.593663         0.530969         0.426244
 C         3.835139         1.177971        -0.450946
 C         2.347193         1.019223        -0.807486
 O         1.951151        -0.311004        -1.356728
 H        -0.294995        -0.404376         0.725728
 H         0.207532         1.215949         1.093742
 H        -0.400168         0.847867        -0.464286
 H         1.954479        -0.359338         2.136590
 H         1.451575        -1.838862         1.170571
 H         4.463140        -0.308877         2.278867
 H         5.233042        -1.548016         1.309446
 H         5.565758         1.019006         0.534778
 H         4.224712         2.142850        -0.750336
 H         1.997106         1.939410        -1.378030
