19
Iteration:  3690charge 0 multiplicity 1
 C         0.095201         0.648921         0.339182
 C         1.531021         0.035388         0.121883
 C         2.085424        -1.103359         0.989790
 O         3.397869        -1.441323         0.667207
 C         4.415122        -0.662772         1.295065
 C         4.639976         0.709861         0.596027
 C         3.817475         1.103910        -0.396528
 C         2.428567         0.854775        -0.638358
 O         1.908437        -0.312673        -1.300778
 H         0.002525         1.543903        -0.163356
 H        -0.874029         0.043012        -0.038058
 H        -0.023330         0.658052         1.415136
 H         1.988602        -0.800673         2.139313
 H         1.589613        -2.115135         0.806872
 H         4.120158        -0.586067         2.391663
 H         5.470312        -1.164544         1.217477
 H         5.537201         1.268732         0.723293
 H         4.241197         1.932574        -0.884995
 H         1.840685         1.711909        -1.124359
