19
Iteration:  1232
 C         0.013232         0.366812         0.237254
 C         1.496168        -0.006620         0.041538
 C         2.086881        -0.843528         1.205609
 O         3.371806        -1.368747         1.059036
 C         4.428569        -0.483977         1.455287
 C         4.761061         0.495168         0.342948
 C         3.965914         0.963954        -0.574093
 C         2.418394         0.911014        -0.763950
 O         1.796611        -0.260404        -1.401641
 H        -0.110002         1.003149         1.094163
 H        -0.411479         0.898568        -0.565717
 H        -0.658493        -0.522379         0.447924
 H         2.171616        -0.243889         2.117993
 H         1.463414        -1.823880         1.341322
 H         4.109565         0.039055         2.346257
 H         5.316644        -0.978603         1.724752
 H         5.835163         0.748154         0.412554
 H         4.474460         1.712484        -1.389702
 H         2.014844         1.868785        -1.345945
