19
Iteration:   217charge 0 multiplicity 1
 C        -0.081110         0.286104         0.275902
 C         1.444496         0.107215         0.005754
 C         2.057659        -0.627942         1.254366
 O         3.247797        -1.387162         1.059294
 C         4.489955        -0.657762         1.152615
 C         4.786295         0.531643         0.382931
 C         3.922392         1.152243        -0.529531
 C         2.431705         0.898663        -0.780093
 O         2.016062        -0.413453        -1.222269
 H        -0.260909         0.917901         1.213197
 H        -0.744383         0.675064        -0.472295
 H        -0.606941        -0.699238         0.465937
 H         2.204232         0.142243         1.998460
 H         1.391486        -1.454652         1.504164
 H         4.535522        -0.360728         2.193062
 H         5.317348        -1.490313         0.921587
 H         5.797964         0.870520         0.450058
 H         4.388870         1.733578        -1.241052
 H         2.083519         1.664787        -1.524378
