19
Iteration:   673
 C         0.020806         0.515059         0.109691
 C         1.501560         0.054157         0.122559
 C         1.984168        -0.905431         1.276459
 O         3.295924        -1.418499         1.080725
 C         4.480350        -0.587286         1.224514
 C         4.720233         0.559718         0.233906
 C         3.827062         1.213635        -0.535984
 C         2.421843         0.878228        -0.774681
 O         2.068190        -0.478797        -1.145859
 H        -0.195418         1.219821         0.956029
 H        -0.129590         1.073124        -0.893576
 H        -0.642615        -0.399304         0.148428
 H         1.815783        -0.353298         2.229696
 H         1.229213        -1.641560         1.346796
 H         4.493941        -0.174660         2.288150
 H         5.378112        -1.361951         1.272213
 H         5.699310         1.032226         0.168976
 H         4.157930         2.027720        -1.076651
 H         1.845087         1.659894        -1.227488
