19
Iteration:  1562charge 0 multiplicity 1
 C         0.106444         0.386433         0.145437
 C         1.596504         0.059698         0.107039
 C         2.010001        -0.648852         1.349548
 O         3.216785        -1.405326         1.048950
 C         4.392412        -0.686218         1.139330
 C         4.629012         0.565520         0.304962
 C         3.775784         1.259487        -0.506326
 C         2.413193         0.878071        -0.843577
 O         2.104119        -0.543094        -1.122085
 H        -0.116894         0.652831         1.194192
 H         0.096888         1.257990        -0.555748
 H        -0.417634        -0.453788        -0.184080
 H         2.100432        -0.007402         2.255573
 H         1.386225        -1.502340         1.532999
 H         4.695719        -0.483594         2.170387
 H         5.280130        -1.365326         0.790310
 H         5.661686         0.990111         0.298575
 H         4.120377         2.084949        -1.142288
 H         1.920034         1.694616        -1.496394
