19
Iteration:  2984
 C         0.004533         0.313118         0.144420
 C         1.477340         0.045351         0.112451
 C         2.016300        -0.992651         1.158939
 O         3.334435        -1.513043         0.956664
 C         4.470570        -0.690129         1.181869
 C         4.721438         0.433891         0.236245
 C         3.863333         1.264087        -0.394555
 C         2.424333         1.084156        -0.479849
 O         2.004106        -0.093375        -1.241210
 H        -0.242855         0.852407        -0.916011
 H        -0.527470        -0.699662        -0.126388
 H        -0.543663         0.921849         0.957339
 H         2.053665        -0.526899         2.135823
 H         1.390767        -1.857596         1.201296
 H         4.306142        -0.270283         2.289445
 H         5.311666        -1.416309         1.152281
 H         5.848727         0.620812         0.219229
 H         4.249968         2.099305        -0.891490
 H         1.950662         1.961603        -0.937391
