19
Iteration:   911charge 0 multiplicity 1
 C         0.028451         0.577609         0.098336
 C         1.471142        -0.024293         0.127583
 C         1.981381        -0.971543         1.169311
 O         3.316697        -1.400698         1.083366
 C         4.517899        -0.497313         1.281499
 C         4.757156         0.540776         0.229108
 C         3.863669         1.215252        -0.583832
 C         2.417432         0.847851        -0.657770
 O         1.990616        -0.474355        -1.114314
 H        -0.041809         1.250127         0.881069
 H        -0.071874         1.196488        -0.816268
 H        -0.818411        -0.043944         0.127546
 H         1.614087        -0.542569         2.152587
 H         1.416169        -1.972940         1.152618
 H         4.468796         0.084413         2.158719
 H         5.301119        -1.160322         1.400334
 H         5.783078         0.801857         0.051151
 H         4.125281         2.046357        -1.283342
 H         1.810439         1.543027        -1.247075
