19
Iteration:  3832charge 0 multiplicity 1
 C         0.097348         0.381146         0.185726
 C         1.534933         0.032987         0.055552
 C         2.013851        -0.916874         1.169118
 O         3.299814        -1.536747         0.899971
 C         4.440600        -0.709163         1.147905
 C         4.648570         0.523311         0.291547
 C         3.771865         1.292764        -0.331061
 C         2.393078         1.059506        -0.509198
 O         2.071060        -0.239346        -1.258292
 H        -0.241190         0.868796        -0.723623
 H        -0.459677        -0.743660         0.382435
 H         0.034765         0.935887         1.163904
 H         1.969826        -0.310021         2.083556
 H         1.218321        -1.748952         1.187049
 H         4.470942        -0.427521         2.298474
 H         5.328098        -1.331579         1.178553
 H         5.747861         0.741865         0.157068
 H         4.254878         2.092344        -0.894372
 H         1.885282         1.848390        -1.174454
