19
Iteration:  4570charge 0 multiplicity 1
 C         0.079879         0.409860         0.209141
 C         1.514120         0.029692         0.094541
 C         1.998335        -1.140903         1.011834
 O         3.325209        -1.518983         0.908941
 C         4.371050        -0.557341         1.334175
 C         4.750254         0.430204         0.272029
 C         3.851634         1.201347        -0.410204
 C         2.404497         1.063869        -0.484018
 O         2.035544        -0.075627        -1.275725
 H        -0.417809        -0.332542        -0.469367
 H        -0.339977         0.096299         1.215996
 H        -0.062513         1.463866        -0.099743
 H         1.763886        -0.804936         2.069138
 H         1.355066        -1.990275         0.734560
 H         4.171214        -0.077192         2.249264
 H         5.204296        -1.235605         1.647754
 H         5.801952         0.689201         0.104879
 H         4.279613         2.000016        -1.101853
 H         1.785557         1.940298        -0.771119
