19
Iteration:  1439
 C         0.107323         0.520111         0.073555
 C         1.563019         0.081401         0.157544
 C         1.952050        -0.878430         1.266905
 O         3.332350        -1.458342         1.130054
 C         4.405803        -0.542455         1.205079
 C         4.686561         0.493210         0.166983
 C         3.795232         1.255093        -0.515456
 C         2.373365         0.867254        -0.772581
 O         2.061765        -0.479817        -1.126239
 H         0.159042         1.454852         0.582452
 H        -0.151714         0.552736        -0.987003
 H        -0.521134        -0.307929         0.565090
 H         1.820319        -0.435072         2.328203
 H         1.261488        -1.661460         1.126307
 H         4.464974        -0.086383         2.188527
 H         5.366400        -1.256206         1.262357
 H         5.713073         0.775489         0.114550
 H         4.087004         2.184530        -0.987617
 H         1.842005         1.698565        -1.187793
