19
Iteration:  4744
 C         0.028802         0.433853         0.247983
 C         1.512110         0.058887         0.052032
 C         1.995237        -1.052238         1.003696
 O         3.285524        -1.482946         0.743995
 C         4.429272        -0.663357         1.222772
 C         4.797623         0.577717         0.537171
 C         3.921797         1.217305        -0.209697
 C         2.439772         0.969284        -0.596108
 O         1.945174        -0.208818        -1.337336
 H        -0.532038        -0.401388         0.715074
 H         0.038659         1.387679         0.732125
 H        -0.494709         0.608755        -0.698720
 H         1.891510        -0.633123         2.046231
 H         1.352632        -1.884407         1.112358
 H         4.341281        -0.605533         2.313735
 H         5.182749        -1.443627         1.006223
 H         5.751323         0.978438         0.658384
 H         4.238177         2.171955        -0.641034
 H         1.990992         1.864651        -0.813548
