19
Iteration:  1203
 C         0.167635         0.614693         0.114783
 C         1.535966        -0.004522         0.113748
 C         1.997357        -0.977617         1.143508
 O         3.359561        -1.452915         1.114343
 C         4.428632        -0.470831         1.293041
 C         4.687574         0.522203         0.289954
 C         3.801215         1.164656        -0.572387
 C         2.369656         0.884517        -0.704726
 O         1.939847        -0.473019        -1.189633
 H         0.093678         1.268047         1.041034
 H        -0.171928         1.171809        -0.781992
 H        -0.580407        -0.143116         0.173530
 H         1.915276        -0.502087         2.144359
 H         1.437988        -1.886160         0.884996
 H         4.368636        -0.016356         2.357521
 H         5.401108        -1.062271         1.454396
 H         5.648387         1.036336         0.362266
 H         4.159613         1.943194        -1.204324
 H         2.025036         1.667410        -1.313710
