19
Iteration:  1277charge 0 multiplicity 1
 C         0.056258         0.259379         0.293642
 C         1.517400         0.063545         0.052058
 C         1.967427        -0.882426         1.184521
 O         3.359985        -1.322066         1.059638
 C         4.323592        -0.391617         1.477291
 C         4.813013         0.377216         0.276294
 C         4.008758         0.989252        -0.631022
 C         2.427356         0.977048        -0.797922
 O         1.866615        -0.237267        -1.318117
 H        -0.152478         0.560544         1.330402
 H        -0.490776         0.933215        -0.332531
 H        -0.401263        -0.735480         0.166477
 H         1.948503        -0.399807         2.135947
 H         1.423918        -1.889106         1.090199
 H         4.062608         0.236123         2.323948
 H         5.145841        -0.962558         1.833111
 H         5.856103         0.491828         0.130904
 H         4.492267         1.440094        -1.591170
 H         2.069701         2.042579        -1.169823
