19
Iteration:   722
 C         0.132473         0.336220         0.345313
 C         1.490585        -0.010697        -0.102022
 C         2.108420        -0.735762         1.220371
 O         3.328647        -1.396056         1.144825
 C         4.477729        -0.591690         1.396876
 C         4.679528         0.534274         0.453448
 C         3.851540         1.028398        -0.545551
 C         2.390456         0.890057        -0.877587
 O         1.841509        -0.296158        -1.479787
 H         0.238481         1.318972         0.829805
 H        -0.499904         0.431079        -0.462718
 H        -0.248711        -0.419055         1.002154
 H         2.046160        -0.037492         2.008098
 H         1.236582        -1.403857         1.471011
 H         4.470068        -0.277688         2.514003
 H         5.359320        -1.229576         1.355016
 H         5.666009         1.003231         0.496530
 H         4.426034         1.907149        -1.183302
 H         1.954631         1.838009        -1.327901
