19
Iteration:   838charge 0 multiplicity 1
 C         0.143062         0.206803         0.399571
 C         1.548037         0.088032         0.005695
 C         2.034292        -0.758367         1.137145
 O         3.307245        -1.375447         1.134411
 C         4.348343        -0.468577         1.456787
 C         4.766996         0.426886         0.330827
 C         3.915302         0.991502        -0.659370
 C         2.469820         0.952479        -0.890039
 O         1.847184        -0.232384        -1.366695
 H         0.021638         0.389215         1.486371
 H        -0.528404         1.039204        -0.099475
 H        -0.391227        -0.738972         0.109333
 H         1.714331        -0.294799         2.080731
 H         1.453926        -1.669343         1.133434
 H         4.138412         0.125069         2.392738
 H         5.246192        -1.111775         1.708363
 H         5.763975         0.774395         0.125882
 H         4.332592         1.558593        -1.336885
 H         2.013427         1.863219        -1.214095
