19
Iteration:  1479charge 0 multiplicity 1
 C         0.022834         0.293483         0.116028
 C         1.519305         0.075418         0.122482
 C         2.056781        -0.671073         1.352840
 O         3.184626        -1.415941         1.050207
 C         4.424971        -0.630517         1.219523
 C         4.718940         0.528324         0.286458
 C         3.881085         1.198033        -0.541954
 C         2.429635         0.882310        -0.797233
 O         2.076429        -0.403507        -1.214227
 H        -0.244027         0.878984         1.027915
 H        -0.556099         0.812021        -0.597366
 H        -0.608847        -0.640056         0.167029
 H         2.238523         0.008596         2.162640
 H         1.346989        -1.405490         1.834643
 H         4.549511        -0.222470         2.254161
 H         5.308497        -1.251108         0.940836
 H         5.820844         0.662090         0.196421
 H         4.470394         1.959754        -1.193362
 H         1.799703         1.664839        -1.222329
