19
Iteration:  4314charge 0 multiplicity 1
 C         0.038360         0.531860         0.280402
 C         1.521330         0.081499         0.101504
 C         2.027382        -1.051501         1.068062
 O         3.301819        -1.501736         0.600607
 C         4.424761        -0.783777         1.151841
 C         4.612735         0.671528         0.646953
 C         3.826003         1.311849        -0.232364
 C         2.462081         0.911020        -0.722309
 O         2.065977        -0.317738        -1.247741
 H        -0.331472         0.138379         1.270734
 H         0.111325         1.639665         0.624991
 H        -0.584112         0.527357        -0.598242
 H         2.046493        -0.865542         2.184736
 H         1.321481        -1.845211         1.086088
 H         4.311224        -0.730328         2.221075
 H         5.404792        -1.366046         0.941285
 H         5.607899         0.963774         0.849852
 H         4.182202         2.326784        -0.538782
 H         2.040276         1.720453        -1.188860
