19
Iteration:  2549charge 0 multiplicity 1
 C         0.127808         0.380574         0.335807
 C         1.542809        -0.006858        -0.050163
 C         2.064657        -0.828045         1.143263
 O         3.294003        -1.435114         0.973846
 C         4.531973        -0.702901         1.309960
 C         4.623402         0.541065         0.460224
 C         3.815788         1.170929        -0.456153
 C         2.430188         0.978975        -0.836811
 O         1.918005        -0.322076        -1.335371
 H        -0.583027        -0.453651         0.714868
 H         0.260862         0.967279         1.230479
 H        -0.356040         1.002482        -0.360786
 H         1.886564        -0.233294         2.027760
 H         1.270551        -1.594769         1.123303
 H         4.526709        -0.277103         2.317047
 H         5.406550        -1.298879         1.128656
 H         5.507817         1.046548         0.667284
 H         4.209091         2.192384        -0.658332
 H         1.785049         1.822846        -1.247980
