19
Iteration:  1483
 C         0.004251         0.276778         0.137533
 C         1.516131         0.060701         0.109759
 C         2.093647        -0.650385         1.316534
 O         3.183075        -1.379464         1.069376
 C         4.430098        -0.646086         1.212743
 C         4.742828         0.507441         0.323340
 C         3.866685         1.168545        -0.535329
 C         2.421058         0.885255        -0.783044
 O         2.037164        -0.383432        -1.230095
 H        -0.203520         0.785387         1.078687
 H        -0.496407         0.842203        -0.706562
 H        -0.548743        -0.735632         0.050940
 H         2.271018         0.131007         2.132253
 H         1.417232        -1.323899         1.773051
 H         4.550591        -0.293801         2.234442
 H         5.401312        -1.332142         0.963819
 H         5.784830         0.808884         0.221696
 H         4.356329         1.854775        -1.161683
 H         1.988725         1.711254        -1.347178
