19
Iteration:  4989
 C        -0.019005         0.267319         0.085261
 C         1.492459        -0.016602         0.174649
 C         1.953949        -1.112706         1.064527
 O         3.333444        -1.376651         0.790330
 C         4.409272        -0.670414         1.258288
 C         4.752581         0.337432         0.272402
 C         3.911591         1.227659        -0.318731
 C         2.404185         1.137765        -0.453782
 O         2.068053         0.017553        -1.167524
 H        -0.431301         0.285891         1.124478
 H        -0.207664         1.243761        -0.428022
 H        -0.560441        -0.500333        -0.632447
 H         1.875669        -0.951548         2.096382
 H         1.497180        -1.998273         0.765169
 H         4.079081        -0.123476         2.159212
 H         5.337370        -1.331096         1.468284
 H         5.815230         0.415243         0.100463
 H         4.361703         2.060546        -0.840082
 H         1.899131         2.083009        -0.725475
