19
Iteration:  2801charge 0 multiplicity 1
 C         0.071882         0.298173         0.160640
 C         1.553310         0.061479         0.023716
 C         2.024354        -0.957727         1.126376
 O         3.336448        -1.621224         1.089392
 C         4.444173        -0.743710         1.214522
 C         4.700000         0.458803         0.269160
 C         3.859796         1.277022        -0.366290
 C         2.344398         1.089494        -0.545595
 O         1.973117        -0.028530        -1.349135
 H        -0.432842         0.429139        -0.801461
 H        -0.396207        -0.541622         0.547967
 H        -0.038874         1.117155         0.782561
 H         1.949025        -0.452627         2.048843
 H         1.303539        -1.820881         1.094253
 H         4.529922        -0.297885         2.162572
 H         5.355079        -1.411581         1.143084
 H         5.811011         0.800718         0.196785
 H         4.147815         2.202314        -0.768628
 H         1.790001         2.041991        -0.798121
