19
Iteration:  1610
 C         0.030418         0.397626         0.059014
 C         1.518627         0.021179         0.103600
 C         2.046665        -0.753696         1.297465
 O         3.253253        -1.383736         1.049068
 C         4.528656        -0.591655         1.222132
 C         4.696669         0.501920         0.293654
 C         3.851789         1.144416        -0.505910
 C         2.374213         0.903341        -0.685729
 O         1.987967        -0.410439        -1.202245
 H        -0.019719         1.344241         0.620973
 H        -0.251880         0.488456        -0.963868
 H        -0.507485        -0.396242         0.666976
 H         2.180836        -0.118574         2.196579
 H         1.355817        -1.642578         1.558695
 H         4.692473        -0.192261         2.226354
 H         5.278267        -1.292297         1.123474
 H         5.709258         0.805153         0.140262
 H         4.249500         1.966209        -1.179476
 H         1.830901         1.733591        -1.302288
