19
Iteration:   232
 C        -0.097160         0.258121         0.306319
 C         1.481955         0.088834        -0.005546
 C         2.085929        -0.610953         1.228855
 O         3.290378        -1.316021         0.889907
 C         4.456600        -0.645512         1.344599
 C         4.798726         0.465873         0.337320
 C         3.951797         1.168124        -0.488439
 C         2.502814         0.931884        -0.784093
 O         1.848788        -0.489754        -1.227806
 H        -0.253887         1.009646         1.016121
 H        -0.627461         0.585692        -0.735267
 H        -0.358951        -0.687589         0.672373
 H         2.322114         0.107235         2.033501
 H         1.384605        -1.329175         1.619443
 H         4.431234        -0.322531         2.390531
 H         5.255591        -1.352590         1.263465
 H         5.890085         0.702291         0.235828
 H         4.455868         2.115655        -0.941231
 H         2.046412         1.655123        -1.379394
