19
Iteration:  2306charge 0 multiplicity 1
 C         0.234044         0.491990         0.374265
 C         1.544218         0.003776        -0.009774
 C         2.098541        -0.855710         1.134392
 O         3.354914        -1.403038         1.113543
 C         4.415827        -0.539649         1.413292
 C         4.592752         0.585240         0.385014
 C         3.791666         1.076292        -0.565241
 C         2.356294         0.851649        -0.847910
 O         1.886103        -0.404146        -1.426567
 H         0.482129         0.714792         1.438832
 H        -0.035818         1.328268        -0.314350
 H        -0.588455        -0.281922         0.253649
 H         1.937409        -0.228660         2.085820
 H         1.442624        -1.759720         1.196838
 H         4.328458        -0.090909         2.519154
 H         5.308371        -1.109999         1.315761
 H         5.684661         0.832808         0.448213
 H         4.268987         1.799627        -1.249499
 H         1.855993         1.811653        -1.258793
