19
Iteration:  2742
 C         0.097931         0.465733         0.332250
 C         1.531841        -0.025320         0.083502
 C         2.031517        -1.069089         1.050614
 O         3.341141        -1.358543         0.618434
 C         4.253433        -0.591460         1.357497
 C         4.759925         0.604701         0.526771
 C         3.961437         1.137488        -0.440121
 C         2.534152         0.918400        -0.668163
 O         1.857845        -0.256116        -1.250312
 H        -0.123283         1.498957        -0.011150
 H        -0.659321        -0.397757         0.096765
 H        -0.223721         0.515326         1.496618
 H         1.988824        -0.756835         2.114718
 H         1.419338        -1.984114         0.987038
 H         4.002173        -0.283187         2.387207
 H         5.071058        -1.212420         1.366406
 H         5.767057         0.935249         0.763577
 H         4.450586         1.945795        -1.024424
 H         2.027577         1.761977        -0.949537
