19
Iteration:  1098charge 0 multiplicity 1
 C        -0.017127         0.252187         0.056793
 C         1.475791        -0.002718         0.025378
 C         2.070108        -0.593063         1.292223
 O         3.279279        -1.326954         1.171173
 C         4.582854        -0.704560         1.235238
 C         4.745941         0.459592         0.332009
 C         3.857347         1.135676        -0.505883
 C         2.427768         0.953612        -0.735841
 O         1.901352        -0.377747        -1.264362
 H        -0.329123         0.778027         0.941870
 H        -0.168356         0.863469        -0.888283
 H        -0.546888        -0.690144        -0.007921
 H         2.064365         0.245912         1.974654
 H         1.285037        -1.212931         1.825912
 H         4.818515        -0.598549         2.315492
 H         5.173667        -1.523318         0.859623
 H         5.682544         0.979437         0.370402
 H         4.269341         1.992630        -1.097950
 H         2.090870         1.899525        -1.153695
