19
Iteration:  1172charge 0 multiplicity 1
 C         0.121607         0.540861         0.256250
 C         1.541157         0.036764         0.106460
 C         1.942062        -0.912720         1.234554
 O         3.254530        -1.453496         0.989513
 C         4.345516        -0.514407         1.244725
 C         4.647628         0.656393         0.311719
 C         3.913029         1.275507        -0.550735
 C         2.461320         0.799236        -0.808183
 O         2.095974        -0.547815        -1.194948
 H         0.133940         1.219666         1.195873
 H        -0.260892         1.101217        -0.706971
 H        -0.475677        -0.336886         0.571487
 H         1.803098        -0.311384         2.168292
 H         1.152076        -1.593513         1.384288
 H         4.334683        -0.201098         2.308281
 H         5.083353        -1.404333         1.149701
 H         5.693008         0.995491         0.400206
 H         4.209589         1.962017        -1.193929
 H         2.000397         1.472138        -1.485913
