19
Iteration:  4682
 C         0.125848         0.496769         0.334143
 C         1.543237         0.018126         0.000389
 C         2.035567        -1.000100         1.016094
 O         3.356870        -1.547041         0.810348
 C         4.487348        -0.756230         1.274110
 C         4.594872         0.602126         0.581033
 C         3.888876         1.267170        -0.284738
 C         2.489449         0.931303        -0.759778
 O         1.838213        -0.235332        -1.400481
 H        -0.671866         0.046252        -0.276475
 H        -0.163824         0.337712         1.473472
 H        -0.020571         1.559036         0.126241
 H         2.171288        -0.416718         1.948539
 H         1.311131        -1.888543         1.087141
 H         4.408548        -0.435052         2.356000
 H         5.404408        -1.370253         1.052298
 H         5.311573         1.197578         1.111559
 H         4.171718         2.305734        -0.395036
 H         1.919868         1.934890        -0.952796
