19
Iteration:  2958
 C         0.140757         0.393332         0.213774
 C         1.582230        -0.007284         0.032838
 C         1.986349        -0.935867         1.203797
 O         3.277413        -1.594054         1.006888
 C         4.466210        -0.750481         1.097509
 C         4.617807         0.570148         0.349934
 C         3.845014         1.361527        -0.373953
 C         2.364336         1.116680        -0.580083
 O         2.026559        -0.254842        -1.302025
 H        -0.093339         1.197398        -0.312077
 H        -0.383071        -0.367711        -0.227886
 H        -0.190408         0.530821         1.179144
 H         1.984896        -0.431432         2.142333
 H         1.252290        -1.751096         1.158698
 H         4.611703        -0.535749         2.243409
 H         5.286903        -1.459861         0.734903
 H         5.613151         0.786888         0.599629
 H         4.278947         2.229677        -0.950654
 H         1.689095         1.876776        -1.128115
