19
Iteration:   337charge 0 multiplicity 1
 C         0.105500         0.440331         0.365895
 C         1.537814        -0.001633        -0.035670
 C         2.084572        -0.862569         1.177083
 O         3.353848        -1.487568         1.155863
 C         4.358164        -0.490377         1.353686
 C         4.675319         0.574913         0.326381
 C         3.827394         1.101069        -0.704608
 C         2.432011         0.979810        -0.750886
 O         1.936460        -0.396133        -1.321191
 H         0.302745         0.891830         1.385613
 H        -0.429452         1.130909        -0.304293
 H        -0.645439        -0.407592         0.478264
 H         2.168263        -0.179487         2.112559
 H         1.321458        -1.723055         1.337774
 H         4.100311         0.114467         2.234370
 H         5.292051        -1.067139         1.522646
 H         5.724440         0.604541         0.011840
 H         4.282257         1.638671        -1.436559
 H         1.935084         1.702624        -1.437904
