19
Iteration:  2011
 C        -0.043958         0.168727         0.078436
 C         1.525631         0.077478         0.074202
 C         2.038575        -0.613200         1.272984
 O         3.288694        -1.432879         1.126480
 C         4.550211        -0.634394         1.267153
 C         4.788054         0.389749         0.233465
 C         3.893287         1.145019        -0.449094
 C         2.367394         1.027010        -0.727152
 O         1.896016        -0.287002        -1.264211
 H        -0.542814         0.536455         1.092558
 H        -0.352830         0.871127        -0.694656
 H        -0.303112        -0.788248        -0.093657
 H         2.151968         0.266714         1.999238
 H         1.448244        -1.395491         1.725361
 H         4.693620        -0.161354         2.175024
 H         5.373916        -1.387611         1.237309
 H         5.838696         0.642948         0.127869
 H         4.421975         1.859924        -1.034438
 H         1.825468         1.819600        -1.284180
