19
Iteration:  2915
 C        -0.059713         0.392012         0.288038
 C         1.488051         0.095913         0.022382
 C         2.133109        -0.751977         1.187925
 O         3.304249        -1.439698         0.739570
 C         4.555006        -0.868131         1.138486
 C         4.648502         0.618615         0.586988
 C         3.815265         1.194391        -0.263752
 C         2.441843         0.929895        -0.766810
 O         1.970009        -0.365518        -1.304539
 H        -0.345968         1.347229        -0.042122
 H        -0.702645        -0.277218        -0.254197
 H        -0.247860         0.385944         1.347049
 H         2.459015        -0.031469         1.904674
 H         1.474406        -1.431807         1.678909
 H         4.625692        -0.844065         2.306586
 H         5.377292        -1.568789         0.684803
 H         5.378360         1.271557         0.950797
 H         4.089112         2.285127        -0.416803
 H         2.183688         1.882365        -1.409540
