19
Iteration:  4472
 C         0.176222         0.617003         0.322376
 C         1.591039         0.048350         0.190764
 C         2.015347        -1.280750         0.908658
 O         3.348240        -1.529548         0.690045
 C         4.275966        -0.578449         1.234516
 C         4.692341         0.569555         0.472114
 C         3.861891         1.320141        -0.261535
 C         2.471606         0.933823        -0.570320
 O         1.939348        -0.265713        -1.304037
 H        -0.410890         0.070408         1.044116
 H         0.237469         1.667418         0.551692
 H        -0.336155         0.416915        -0.642017
 H         1.924797        -1.032702         1.972630
 H         1.320564        -2.024258         0.394858
 H         3.797828        -0.295277         2.303897
 H         5.078130        -1.217250         1.544835
 H         5.671954         1.001900         0.842509
 H         4.226216         2.301291        -0.728726
 H         1.826663         1.746564        -0.986610
