19
Iteration:  2509
 C        -0.012096         0.426563         0.128483
 C         1.483602         0.031888         0.087001
 C         2.115083        -0.745301         1.252903
 O         3.317550        -1.396400         0.753626
 C         4.515087        -0.681130         1.229837
 C         4.664102         0.570150         0.483474
 C         3.877089         1.180826        -0.434198
 C         2.422138         0.876085        -0.742636
 O         1.897358        -0.436880        -1.148991
 H        -0.614353        -0.217400        -0.610514
 H        -0.374109         0.302716         1.157049
 H         0.012391         1.603207        -0.005168
 H         2.407472        -0.148100         2.157122
 H         1.514624        -1.585812         1.622663
 H         4.588412        -0.752270         2.340203
 H         5.313272        -1.395279         0.961150
 H         5.573177         1.230318         0.797601
 H         4.255233         2.123481        -0.891627
 H         2.045372         1.727193        -1.225583
