19
Iteration:  1087
 C         0.045726         0.267654         0.070585
 C         1.553895         0.049611         0.044047
 C         2.020656        -0.595082         1.377705
 O         3.197962        -1.364042         1.183044
 C         4.493500        -0.712113         1.148485
 C         4.712686         0.500666         0.240723
 C         3.846871         1.188811        -0.462611
 C         2.416660         0.906103        -0.743869
 O         2.028544        -0.391959        -1.234439
 H        -0.334998         0.714959         0.969863
 H        -0.325933         0.927019        -0.763113
 H        -0.440630        -0.677747        -0.093263
 H         2.091074         0.119739         2.178910
 H         1.320973        -1.436031         1.540206
 H         4.811370        -0.258502         2.111083
 H         5.213992        -1.477987         0.931614
 H         5.744180         0.780222         0.215547
 H         4.321665         2.011219        -0.995548
 H         1.837914         1.595175        -1.322492
