19
Iteration:  2752
 C         0.054247         0.388679         0.350104
 C         1.535652         0.050938         0.113105
 C         2.015635        -1.019561         1.081219
 O         3.307384        -1.334306         0.617733
 C         4.377987        -0.649563         1.340679
 C         4.764069         0.563916         0.533875
 C         4.000339         1.105614        -0.445645
 C         2.443568         0.920198        -0.591546
 O         1.882347        -0.232312        -1.312203
 H        -0.200376         1.151280        -0.419314
 H        -0.573190        -0.461605        -0.140560
 H        -0.155165         0.762429         1.461713
 H         2.000329        -0.654116         2.159974
 H         1.395668        -1.897119         0.935194
 H         3.884554        -0.271693         2.314497
 H         5.171622        -1.256719         1.658170
 H         5.650915         1.110003         0.622359
 H         4.393388         1.892009        -1.134444
 H         2.046125         1.842001        -0.898401
