19
Iteration:  1659
 C        -0.020429         0.322542         0.354927
 C         1.514087         0.052130        -0.065241
 C         2.050827        -0.763214         1.164265
 O         3.372191        -1.436437         1.090088
 C         4.367833        -0.531187         1.388505
 C         4.777639         0.502509         0.361669
 C         3.948293         1.030882        -0.540110
 C         2.497018         0.917023        -0.833203
 O         1.814801        -0.275140        -1.363188
 H        -0.306241         1.298676         0.820015
 H        -0.597393         0.158432        -0.632045
 H        -0.155796        -0.530604         1.092031
 H         2.139404        -0.113447         2.095047
 H         1.430634        -1.635104         1.302228
 H         4.293881        -0.010458         2.381684
 H         5.341485        -1.188126         1.585481
 H         5.796567         1.013489         0.331795
 H         4.293105         1.768498        -1.244158
 H         2.091721         1.724849        -1.295931
