19
Iteration:  2202charge 0 multiplicity 1
 C         0.133306         0.377051         0.235800
 C         1.573685        -0.057862         0.068985
 C         2.011185        -1.043011         1.183449
 O         3.382661        -1.456608         1.214985
 C         4.228483        -0.325704         1.371576
 C         4.782498         0.407368         0.103038
 C         3.945326         1.141642        -0.676634
 C         2.425988         0.942692        -0.649924
 O         1.857759        -0.221290        -1.314358
 H         0.174193         1.035183         1.078948
 H        -0.168551         1.041958        -0.572623
 H        -0.480400        -0.489801         0.517478
 H         1.713510        -0.646606         2.178458
 H         1.459024        -1.963532         1.008943
 H         3.735390         0.413203         2.117159
 H         5.215618        -0.632826         1.911528
 H         5.822889         0.540141         0.054262
 H         4.410122         1.876548        -1.300195
 H         2.012132         1.832012        -0.997520
