19
Iteration:  2275
 C         0.039228         0.362922         0.302461
 C         1.471045         0.071457         0.031012
 C         2.071210        -0.902165         1.120113
 O         3.397791        -1.430754         1.099890
 C         4.368686        -0.397966         1.397147
 C         4.796410         0.535148         0.342715
 C         3.985979         1.016714        -0.665412
 C         2.454719         0.829566        -0.747461
 O         1.751704        -0.304460        -1.355259
 H         0.016771         0.529865         1.502517
 H        -0.274010         1.394258        -0.110663
 H        -0.574249        -0.463386         0.090770
 H         1.934312        -0.423709         2.155717
 H         1.452170        -1.825592         1.095579
 H         3.964179         0.281952         2.217686
 H         5.282125        -0.804590         1.819797
 H         5.859164         0.707325         0.466366
 H         4.405045         1.728876        -1.413896
 H         2.237302         1.915253        -1.070581
