19
Iteration:  4137
 C         0.093978         0.375993         0.346446
 C         1.552786         0.074463         0.005302
 C         2.083325        -0.997500         0.949205
 O         3.377149        -1.610349         0.967961
 C         4.399406        -0.594694         1.423615
 C         4.703898         0.606294         0.549677
 C         3.947384         1.099027        -0.439805
 C         2.473592         0.984775        -0.673011
 O         1.717131        -0.076560        -1.496550
 H        -0.571588         0.586795        -0.444065
 H        -0.298785        -0.532065         0.913427
 H         0.063291         1.155049         1.186503
 H         1.866049        -0.705756         2.017429
 H         1.491392        -1.826032         0.625447
 H         4.176334        -0.276973         2.552723
 H         5.414029        -1.148110         1.350682
 H         5.799602         0.867818         0.490431
 H         4.361966         1.861973        -1.055488
 H         2.077501         1.901358        -1.085130
