19
Iteration:  4973charge 0 multiplicity 1
 C         0.012008         0.380077         0.113852
 C         1.490656         0.085665         0.083498
 C         2.022257        -1.093764         1.008366
 O         3.327207        -1.560075         0.741832
 C         4.391667        -0.611285         1.294004
 C         4.811578         0.512148         0.327531
 C         3.871075         1.280589        -0.300720
 C         2.446720         1.071081        -0.328840
 O         1.985818        -0.160121        -1.228664
 H        -0.430156         0.510975         1.107561
 H        -0.215888         1.317020        -0.423625
 H        -0.511134        -0.422061        -0.299693
 H         1.816586        -0.797019         2.120310
 H         1.385099        -2.065557         0.791374
 H         4.075787        -0.346734         2.318989
 H         5.140768        -1.342095         1.453014
 H         5.904711         0.683873         0.145875
 H         4.271942         1.994660        -1.049118
 H         1.953271         1.971916        -0.707654
