19
Iteration:  1739charge 0 multiplicity 1
 C         0.164449         0.524673         0.284653
 C         1.560459        -0.001386         0.116157
 C         2.034513        -1.050340         1.076345
 O         3.393015        -1.350066         0.969527
 C         4.310266        -0.294397         1.423798
 C         4.725211         0.510161         0.315790
 C         3.939593         0.979276        -0.625056
 C         2.440618         0.857898        -0.692067
 O         1.782236        -0.405777        -1.275293
 H         0.136729         0.967791         1.359641
 H         0.118675         1.319490        -0.454319
 H        -0.622721        -0.163514         0.114424
 H         1.839908        -0.788290         2.155230
 H         1.496435        -1.966314         0.985175
 H         3.781007         0.396758         2.114703
 H         5.170604        -0.906790         1.874320
 H         5.703455         0.859205         0.416881
 H         4.460476         1.787437        -1.284995
 H         1.954409         1.740276        -1.146330
