19
Iteration:  4939
 C         0.153470         0.466832         0.335108
 C         1.548310        -0.001720         0.053125
 C         2.061377        -1.120452         1.038559
 O         3.347152        -1.502699         0.756655
 C         4.383534        -0.727922         1.366316
 C         4.593398         0.542650         0.545196
 C         3.845776         1.257093        -0.323681
 C         2.471129         0.986443        -0.711933
 O         1.912135        -0.100750        -1.436358
 H         0.319332         0.922762         1.310346
 H        -0.248482         1.144055        -0.357875
 H        -0.504238        -0.361019         0.445829
 H         2.030380        -0.855487         2.139335
 H         1.438778        -2.102058         0.851629
 H         4.169987        -0.562924         2.433356
 H         5.306088        -1.210774         1.188372
 H         5.442867         1.076218         0.913307
 H         4.144772         2.240843        -0.670136
 H         2.013021         2.000635        -0.986788
