19
Iteration:  2585
 C         0.062944         0.434591         0.220311
 C         1.599637        -0.027905         0.093821
 C         1.964900        -0.982036         1.129968
 O         3.361159        -1.595358         1.024709
 C         4.421425        -0.573553         1.293397
 C         4.693979         0.569076         0.308292
 C         3.876605         1.268317        -0.557053
 C         2.420855         0.979860        -0.625822
 O         1.934147        -0.225967        -1.270780
 H        -0.564744        -0.136357         1.053877
 H         0.094941         1.519179         0.367145
 H        -0.440462         0.189102        -0.836468
 H         1.859451        -0.586434         2.122385
 H         1.370877        -1.865509         1.066049
 H         4.209501        -0.110375         2.296566
 H         5.179959        -1.239990         1.523729
 H         5.770123         0.819156         0.042768
 H         4.305217         2.100628        -1.144365
 H         1.954297         1.898451        -0.867109
