19
Iteration:  2451charge 0 multiplicity 1
 C         0.054908         0.312806         0.180881
 C         1.499140        -0.005227         0.079989
 C         2.059220        -0.724511         1.259958
 O         3.219937        -1.478458         1.162218
 C         4.462122        -0.761479         1.056400
 C         4.672949         0.561975         0.280109
 C         3.824293         1.229785        -0.460361
 C         2.400280         0.993951        -0.698100
 O         2.115865        -0.324170        -1.260044
 H        -0.239849         0.869930        -0.884394
 H        -0.521697        -0.656343         0.283431
 H        -0.202391         0.986703         0.972504
 H         2.068007        -0.001498         2.102358
 H         1.187843        -1.358721         1.480537
 H         4.698055        -0.363484         2.049900
 H         5.182628        -1.457518         0.791154
 H         5.640938         0.919563         0.270477
 H         4.263395         2.199395        -0.760512
 H         1.822965         1.880516        -1.079322
