19
Iteration:  3967charge 0 multiplicity 1
 C         0.032858         0.236371         0.172274
 C         1.576772         0.085344         0.122426
 C         2.011369        -0.987356         1.046961
 O         3.318515        -1.582701         1.114962
 C         4.431924        -0.721944         1.213291
 C         4.680937         0.433941         0.268461
 C         3.875620         1.260176        -0.430294
 C         2.397627         1.147217        -0.529124
 O         2.015360        -0.004796        -1.325523
 H        -0.327483         0.720026        -0.800394
 H        -0.636684        -0.740801         0.253472
 H        -0.333853         0.838520         1.013804
 H         1.770277        -0.661187         2.136409
 H         1.425501        -1.921226         0.923589
 H         4.432967        -0.298666         2.155789
 H         5.274662        -1.334996         1.059380
 H         5.694305         0.643243         0.098688
 H         4.281250         2.164384        -0.903991
 H         1.942070         2.024127        -0.888716
