19
Iteration:  2512charge 0 multiplicity 1
 C        -0.031540         0.425651         0.142837
 C         1.507881         0.025986         0.053934
 C         2.131238        -0.748864         1.268975
 O         3.303161        -1.405564         0.763589
 C         4.516401        -0.671577         1.212996
 C         4.648022         0.590586         0.515053
 C         3.905301         1.175042        -0.430336
 C         2.430465         0.885055        -0.742920
 O         1.878674        -0.443915        -1.177892
 H        -0.595652        -0.113933        -0.458605
 H        -0.333476         0.351914         1.191719
 H        -0.088110         1.513082        -0.037046
 H         2.407047        -0.154269         2.165880
 H         1.556074        -1.609507         1.637171
 H         4.506770        -0.700196         2.247286
 H         5.399548        -1.392852         1.016703
 H         5.633809         1.142995         0.773272
 H         4.230950         2.091156        -0.867240
 H         2.019951         1.745127        -1.252430
