19
Iteration:  2539
 C         0.107107         0.393174         0.351989
 C         1.527536         0.056603        -0.006003
 C         2.062255        -0.765113         1.105194
 O         3.281617        -1.470338         0.927441
 C         4.503885        -0.645498         1.278594
 C         4.679093         0.594980         0.475371
 C         3.842688         1.189409        -0.380272
 C         2.430617         0.834383        -0.803468
 O         1.894651        -0.354592        -1.357308
 H        -0.664520        -0.564280         0.223027
 H         0.112442         0.782447         1.372488
 H        -0.337461         1.150502        -0.341598
 H         2.164832        -0.130120         1.991381
 H         1.403709        -1.584855         1.422432
 H         4.549886        -0.628727         2.439748
 H         5.323516        -1.272437         1.017060
 H         5.550837         1.131930         0.747360
 H         4.181761         2.103747        -0.940343
 H         1.999128         1.780931        -1.278097
