19
Iteration:  1257charge 0 multiplicity 1
 C         0.008437         0.166209         0.385746
 C         1.543972         0.045739        -0.007463
 C         2.011403        -0.729151         1.074070
 O         3.279023        -1.299419         1.036667
 C         4.342065        -0.467920         1.474836
 C         4.809635         0.515420         0.344785
 C         3.974636         0.865214        -0.658227
 C         2.551683         0.917763        -0.689918
 O         1.850738        -0.208555        -1.394425
 H        -0.171772         0.605022         1.395656
 H        -0.637127         0.752619        -0.299030
 H        -0.355767        -0.784574         0.558290
 H         2.034844        -0.110412         2.056739
 H         1.351763        -1.643924         1.257967
 H         3.931475         0.125268         2.306122
 H         5.281450        -0.994829         1.726098
 H         5.856947         0.595358         0.216695
 H         4.438811         1.379121        -1.490728
 H         2.235361         1.921379        -1.056253
