19
Iteration:  3131
 C         0.183353         0.417072         0.458605
 C         1.576195         0.083856         0.056816
 C         2.008491        -1.150000         0.925729
 O         3.413672        -1.423830         0.675512
 C         4.256525        -0.526182         1.414979
 C         4.726078         0.602909         0.555846
 C         3.959238         1.063937        -0.491935
 C         2.491638         0.920094        -0.707847
 O         1.758144        -0.166280        -1.302831
 H        -0.224978         1.228948        -0.190859
 H        -0.537356        -0.536990         0.405153
 H         0.125259         0.872610         1.590932
 H         1.815206        -0.982637         1.950519
 H         1.470628        -2.096085         0.754018
 H         3.875931         0.007107         2.371417
 H         4.965393        -1.232115         1.812464
 H         5.692089         1.032393         0.829389
 H         4.480954         1.850108        -1.002592
 H         2.115686         1.832788        -1.006225
