19
Iteration:  2189charge 0 multiplicity 1
 C         0.194792         0.404429         0.364294
 C         1.629910        -0.009719         0.040251
 C         2.039076        -1.052129         1.139570
 O         3.348927        -1.415260         1.239408
 C         4.293464        -0.389766         1.421260
 C         4.653331         0.466224         0.200530
 C         3.884203         1.088033        -0.662358
 C         2.459220         0.960467        -0.786474
 O         1.875161        -0.229756        -1.389890
 H         0.017422         1.075084         1.262954
 H        -0.289055         0.687906        -0.598595
 H        -0.388959        -0.395754         0.513306
 H         1.700461        -0.604311         2.055010
 H         1.492870        -1.978552         0.989078
 H         3.973910         0.295808         2.210632
 H         5.169129        -1.031292         1.774463
 H         5.774719         0.608567         0.138008
 H         4.242835         1.706683        -1.510989
 H         1.822029         1.817961        -0.988767
