19
Iteration:   162
 C        -0.015252         0.459666         0.008308
 C         1.488720         0.056668         0.050252
 C         2.118507        -0.645842         1.345205
 O         3.272631        -1.542138         1.271825
 C         4.530021        -0.725758         1.077716
 C         4.676728         0.552675         0.157748
 C         3.750161         1.281777        -0.442386
 C         2.380301         0.877344        -0.760598
 O         2.079885        -0.460246        -1.131508
 H        -0.484897         0.671280         1.062839
 H        -0.101164         1.372709        -0.522584
 H        -0.582229        -0.418352        -0.491177
 H         2.314558         0.186068         2.004266
 H         1.312470        -1.212117         1.839568
 H         4.879192        -0.505422         2.053992
 H         5.329060        -1.507819         0.606153
 H         5.701338         0.832263         0.198312
 H         4.017318         2.279796        -0.688226
 H         1.769969         1.521082        -1.487625
