19
Iteration:  2366
 C         0.043832         0.409862         0.112764
 C         1.450033         0.077288         0.067503
 C         2.055566        -0.763453         1.202707
 O         3.279499        -1.289269         0.864024
 C         4.468912        -0.632800         1.200607
 C         4.770834         0.545735         0.343338
 C         3.856037         1.143864        -0.429148
 C         2.397055         0.904662        -0.592999
 O         1.982548        -0.522256        -1.108106
 H        -0.199114         1.449288         0.316704
 H        -0.349680         0.237817        -0.865706
 H        -0.478124        -0.208758         0.842654
 H         2.173709        -0.128466         2.130804
 H         1.419874        -1.615830         1.493131
 H         4.512745        -0.447559         2.356369
 H         5.241131        -1.468483         1.040147
 H         5.779717         0.946150         0.224043
 H         4.228198         1.878626        -1.152573
 H         1.915705         1.589209        -1.291357
