19
Iteration:  1741
 C         0.171609         0.510362         0.305152
 C         1.555109         0.008513         0.109862
 C         2.026491        -1.032784         1.075510
 O         3.407011        -1.339631         0.975959
 C         4.309416        -0.320972         1.424877
 C         4.726424         0.534001         0.323266
 C         3.945044         0.962672        -0.641171
 C         2.428874         0.857971        -0.694969
 O         1.787654        -0.401560        -1.281073
 H         0.168325         0.894142         1.313465
 H         0.010764         1.313675        -0.413131
 H        -0.645995        -0.178584         0.056623
 H         1.828133        -0.784240         2.115656
 H         1.439710        -1.983675         0.969654
 H         3.800991         0.429896         2.157208
 H         5.105263        -0.914047         1.870492
 H         5.749835         0.804445         0.449045
 H         4.482680         1.675265        -1.277544
 H         1.935794         1.829542        -1.151713
