19
Iteration:   307charge 0 multiplicity 1
 C         0.229135         0.545218         0.331914
 C         1.641857         0.059536         0.118347
 C         1.981263        -0.968225         1.190760
 O         3.295300        -1.388808         1.219223
 C         4.418244        -0.564186         1.266352
 C         4.619828         0.566019         0.154458
 C         3.769197         1.203153        -0.563005
 C         2.413082         0.801538        -0.851541
 O         1.944469        -0.447201        -1.319290
 H         0.242490         1.136176         1.188744
 H        -0.065778         1.191564        -0.645694
 H        -0.293003        -0.355121         0.455989
 H         1.720361        -0.615553         2.217208
 H         1.441836        -1.843084         0.871069
 H         4.365899         0.147139         2.166148
 H         5.363239        -1.326880         1.422259
 H         5.646324         0.958777         0.347859
 H         3.910270         2.232789        -0.807859
 H         1.904654         1.596568        -1.339274
