19
Iteration:   114
 C        -0.045926         0.137742         0.206278
 C         1.486202         0.204401         0.050934
 C         2.122325        -0.470068         1.326080
 O         3.166182        -1.364765         0.897078
 C         4.461025        -0.772795         1.141710
 C         4.845168         0.582773         0.459173
 C         3.983523         1.180756        -0.486557
 C         2.459902         0.858599        -0.828902
 O         1.866597        -0.462789        -1.163251
 H        -0.471746         0.460579         1.144282
 H        -0.600186         0.691382        -0.631376
 H        -0.232573        -0.913871         0.113669
 H         2.480419         0.358302         1.986957
 H         1.350876        -0.988983         1.949671
 H         4.547662        -0.587395         2.216639
 H         5.198112        -1.616502         0.905370
 H         5.946746         0.910962         0.619780
 H         4.443801         2.104826        -0.991105
 H         2.003566         1.635169        -1.439372
