19
Iteration:  1953
 C         0.085732         0.545164         0.148442
 C         1.544988         0.036197         0.066084
 C         2.085809        -0.765976         1.278893
 O         3.278274        -1.440896         1.043448
 C         4.474423        -0.711408         1.141130
 C         4.609065         0.656044         0.406957
 C         3.770271         1.254520        -0.479055
 C         2.385277         0.827454        -0.838358
 O         2.076025        -0.560824        -1.146942
 H         0.001943         1.039751         1.132962
 H        -0.259906         1.161612        -0.664290
 H        -0.633979        -0.330759         0.136968
 H         2.092217         0.027702         2.074498
 H         1.244226        -1.498650         1.614028
 H         4.488604        -0.402434         2.162932
 H         5.257412        -1.379193         0.902952
 H         5.634381         0.988919         0.329876
 H         4.139810         2.139611        -1.120248
 H         1.848283         1.635596        -1.554095
