19
Iteration:  2014
 C        -0.043906         0.178067         0.091444
 C         1.513950         0.078108         0.050935
 C         2.041063        -0.621481         1.259240
 O         3.311654        -1.413282         1.142327
 C         4.566113        -0.655415         1.264526
 C         4.762649         0.376953         0.263613
 C         3.873546         1.133069        -0.466882
 C         2.352433         1.045161        -0.727815
 O         1.907308        -0.274897        -1.275063
 H        -0.580690         0.476156         1.053827
 H        -0.349625         0.904410        -0.698472
 H        -0.358882        -0.913789        -0.012805
 H         2.217058         0.262069         1.935881
 H         1.438097        -1.357436         1.750169
 H         4.647886        -0.119288         2.248397
 H         5.394271        -1.457754         1.267460
 H         5.888827         0.644052         0.065619
 H         4.479366         1.798525        -1.077811
 H         1.870804         1.832842        -1.183192
