19
Iteration:  4223charge 0 multiplicity 1
 C         0.067694         0.306122         0.132854
 C         1.582311         0.048633         0.169336
 C         1.957487        -1.171335         1.136192
 O         3.285585        -1.479730         0.883834
 C         4.369219        -0.648900         1.234672
 C         4.685307         0.459456         0.280144
 C         3.902908         1.327784        -0.399969
 C         2.426021         1.110878        -0.515752
 O         2.049706        -0.078283        -1.235198
 H        -0.437321        -0.521723        -0.306877
 H        -0.411104         0.415443         1.133896
 H        -0.101734         1.307565        -0.372888
 H         1.773393        -0.783790         2.187438
 H         1.347075        -1.997727         1.032009
 H         4.198231        -0.228623         2.161615
 H         5.132997        -1.460634         1.261837
 H         5.834574         0.575450         0.071313
 H         4.457262         1.930294        -1.084756
 H         1.899719         1.980699        -0.867770
