19
Iteration:  3936
 C         0.048717         0.405716         0.169894
 C         1.503551        -0.016574         0.118843
 C         2.008662        -0.990047         1.104641
 O         3.304781        -1.464218         0.738205
 C         4.423680        -0.698414         1.211057
 C         4.714154         0.559648         0.390707
 C         3.888433         1.298554        -0.318939
 C         2.420566         1.000005        -0.574464
 O         1.999479        -0.277406        -1.163430
 H        -0.095021         1.216273        -0.668658
 H        -0.714366        -0.437841         0.137920
 H        -0.073770         1.078173         1.045471
 H         2.035439        -0.514815         2.070638
 H         1.345008        -1.782613         1.188832
 H         4.265557        -0.411146         2.300252
 H         5.334115        -1.329546         1.175051
 H         5.732162         0.796954         0.258574
 H         4.219131         2.254233        -0.801361
 H         1.937041         1.757398        -1.084234
