19
Iteration:  2342charge 0 multiplicity 1
 C         0.044833         0.493071         0.181887
 C         1.464694         0.065792         0.128219
 C         2.074117        -0.883540         1.263077
 O         3.325335        -1.465118         0.953410
 C         4.404656        -0.578660         1.219208
 C         4.724525         0.628780         0.382485
 C         3.920813         1.241510        -0.563115
 C         2.440235         0.776023        -0.837414
 O         1.942582        -0.465409        -1.162262
 H        -0.065166         1.547038         0.719018
 H        -0.272662         0.867476        -0.825321
 H        -0.627410        -0.120369         0.619863
 H         2.163055        -0.454304         2.341841
 H         1.379109        -1.747150         1.361220
 H         4.344899        -0.332037         2.400030
 H         5.254223        -1.283174         1.194395
 H         5.553918         1.172417         0.534252
 H         4.239706         2.221170        -0.893821
 H         1.804730         1.560922        -1.362332
