19
Iteration:  3581
 C         0.066013         0.332732         0.188222
 C         1.505212        -0.022571         0.058866
 C         2.031078        -1.044941         1.103715
 O         3.375997        -1.547982         1.041896
 C         4.385246        -0.607204         1.229711
 C         4.737384         0.386898         0.176394
 C         3.899727         1.252850        -0.353035
 C         2.365800         1.074967        -0.489541
 O         1.950598        -0.018685        -1.330790
 H        -0.113791         0.917270        -0.649118
 H        -0.426945        -0.604620         0.178887
 H        -0.148150         1.017696         1.009619
 H         1.750028        -0.656132         2.025783
 H         1.413413        -1.941898         0.976253
 H         4.249227        -0.151333         2.228431
 H         5.320777        -1.343222         1.282627
 H         5.756992         0.581040         0.078057
 H         4.274287         2.179498        -0.800042
 H         1.761099         2.069887        -0.638894
