19
Iteration:  2492
 C         0.016560         0.461122         0.094088
 C         1.523069         0.101150         0.149346
 C         2.092938        -0.765766         1.239502
 O         3.288879        -1.346331         0.829247
 C         4.533489        -0.748049         1.114482
 C         4.713234         0.589953         0.408505
 C         3.780881         1.142284        -0.361378
 C         2.366306         0.849795        -0.693101
 O         2.006605        -0.438391        -1.107719
 H        -0.267336         0.053451        -0.940235
 H        -0.693339         0.035144         0.835656
 H        -0.259989         1.457885        -0.002784
 H         2.199316        -0.189356         2.165586
 H         1.439669        -1.642314         1.459997
 H         4.549827        -0.472750         2.247468
 H         5.396281        -1.497823         1.010954
 H         5.721390         0.983671         0.459092
 H         3.977219         2.096587        -0.800792
 H         1.838548         1.633481        -1.351000
