19
Iteration:   365charge 0 multiplicity 1
 C         0.054440         0.304969         0.218299
 C         1.519290         0.046884         0.153491
 C         2.086197        -0.856932         1.229518
 O         3.381854        -1.227861         0.947133
 C         4.428100        -0.422908         1.389730
 C         4.790949         0.433575         0.290419
 C         3.950996         0.878676        -0.605825
 C         2.454071         0.843228        -0.724451
 O         1.719119        -0.261742        -1.275155
 H        -0.368770         0.875393         1.088961
 H        -0.218265         0.865567        -0.672619
 H        -0.609714        -0.565386         0.156070
 H         2.011885        -0.371766         2.231120
 H         1.460657        -1.710402         1.334192
 H         4.208010         0.273111         2.287412
 H         5.252198        -1.136889         1.712118
 H         5.777742         0.861724         0.305051
 H         4.375591         1.702900        -1.450258
 H         2.030632         1.781338        -1.118446
