19
Iteration:   511charge 0 multiplicity 1
 C        -0.045116         0.460355         0.114037
 C         1.499084         0.011997         0.172363
 C         2.086918        -0.828253         1.258033
 O         3.338703        -1.339180         0.798229
 C         4.418557        -0.571998         1.299767
 C         4.810365         0.564303         0.318522
 C         3.960649         1.093400        -0.541275
 C         2.459408         0.841614        -0.706745
 O         1.858343        -0.445596        -1.116907
 H        -0.197124         1.394644         0.606040
 H        -0.324525         0.619934        -0.921400
 H        -0.727755        -0.275443         0.541350
 H         2.127259        -0.386486         2.309549
 H         1.410486        -1.651746         1.575813
 H         3.967465        -0.011545         2.185382
 H         5.257655        -1.083386         1.722542
 H         5.818336         0.992673         0.512416
 H         4.276017         1.971376        -1.144452
 H         1.909392         1.592706        -1.227276
