19
Iteration:  1459charge 0 multiplicity 1
 C         0.098936         0.417751         0.137105
 C         1.577563         0.028965         0.110059
 C         2.008296        -0.785897         1.302046
 O         3.214026        -1.449179         1.082164
 C         4.332206        -0.634598         1.155591
 C         4.665370         0.521016         0.164961
 C         3.820123         1.268553        -0.589021
 C         2.435406         0.984136        -0.713440
 O         2.138816        -0.484931        -1.054074
 H        -0.088704         1.278448         0.794499
 H        -0.154125         0.628539        -0.888813
 H        -0.575486        -0.531055         0.270709
 H         1.983973        -0.226875         2.262854
 H         1.299938        -1.591615         1.434920
 H         4.295773        -0.085817         2.109723
 H         5.384849        -1.265128         1.214770
 H         5.674763         0.912710         0.276715
 H         4.199055         2.137905        -1.206535
 H         2.026582         1.553144        -1.473585
