19
Iteration:  4708charge 0 multiplicity 1
 C         0.188377         0.584743         0.279864
 C         1.549300         0.067799         0.088712
 C         2.082094        -1.033041         1.014664
 O         3.343357        -1.518495         0.614092
 C         4.312802        -0.728806         1.247266
 C         4.586664         0.649723         0.660343
 C         3.801371         1.245327        -0.261902
 C         2.436478         0.976718        -0.725198
 O         1.961784        -0.380344        -1.229936
 H        -0.631731        -0.216592         0.145608
 H         0.023851         0.742586         1.321863
 H         0.007580         1.512845        -0.377904
 H         2.356465        -0.667339         2.023786
 H         1.316100        -1.910637         0.872095
 H         4.324812        -0.625152         2.353846
 H         5.250240        -1.173717         0.950769
 H         5.703575         1.035769         0.837799
 H         4.297976         2.146348        -0.659346
 H         1.926299         1.852668        -1.227445
