19
Iteration:  1299charge 0 multiplicity 1
 C         0.065626         0.463799         0.163977
 C         1.520419         0.029169         0.105770
 C         2.062172        -0.956740         1.152658
 O         3.406311        -1.469466         1.177335
 C         4.325451        -0.349142         1.357091
 C         4.749228         0.426721         0.210786
 C         3.896778         1.063477        -0.658856
 C         2.417413         0.911569        -0.612628
 O         1.900124        -0.329136        -1.252497
 H        -0.331264         0.846266         1.112840
 H         0.053304         1.326423        -0.503268
 H        -0.599887        -0.279454        -0.278071
 H         1.848513        -0.570582         2.138017
 H         1.542818        -1.918844         0.814311
 H         3.950695         0.318135         2.108177
 H         5.139368        -0.833107         1.835960
 H         5.766204         0.617019         0.017539
 H         4.250593         1.816891        -1.432723
 H         1.980994         1.851703        -1.183824
