19
Iteration:  1965charge 0 multiplicity 1
 C         0.058151         0.434317         0.098962
 C         1.511940         0.054008         0.064345
 C         2.040357        -0.707861         1.290051
 O         3.226147        -1.435538         0.983230
 C         4.414601        -0.677453         1.194692
 C         4.653809         0.660057         0.299176
 C         3.773168         1.207051        -0.522016
 C         2.416411         0.883611        -0.744838
 O         2.160198        -0.522963        -1.047311
 H        -0.033633         0.937256         1.144481
 H        -0.094320         1.286993        -0.526660
 H        -0.674545        -0.337656         0.108433
 H         2.275373        -0.247457         2.283667
 H         1.349212        -1.622436         1.461842
 H         4.714727        -0.596309         2.202433
 H         5.146919        -1.357961         0.791093
 H         5.636661         0.972584         0.226402
 H         4.213448         1.979777        -1.235839
 H         1.808688         1.541494        -1.544893
