19
Iteration:  4134charge 0 multiplicity 1
 C         0.109691         0.381093         0.366000
 C         1.561441         0.089227        -0.003057
 C         2.089405        -1.025788         0.938311
 O         3.388939        -1.599125         0.969555
 C         4.397117        -0.603408         1.445135
 C         4.679003         0.594468         0.550002
 C         3.967571         1.119123        -0.427433
 C         2.463150         0.976547        -0.706327
 O         1.694215        -0.082337        -1.494488
 H        -0.567720         0.621148        -0.493616
 H        -0.343508        -0.477224         0.821834
 H         0.155339         1.125474         1.216298
 H         1.879775        -0.684513         2.025683
 H         1.483752        -1.846510         0.706441
 H         4.135368        -0.325621         2.546008
 H         5.342024        -1.142739         1.315381
 H         5.792921         0.973753         0.489113
 H         4.368785         1.898845        -1.058902
 H         2.154651         1.858676        -1.088653
