19
Iteration:  3427charge 0 multiplicity 1
 C        -0.000562         0.245378         0.188161
 C         1.484001         0.046095         0.102304
 C         2.005401        -0.864898         1.170471
 O         3.320479        -1.437093         0.763154
 C         4.415480        -0.729852         1.169142
 C         4.748966         0.462256         0.323300
 C         3.832310         1.146580        -0.365574
 C         2.390790         1.091217        -0.493700
 O         2.091995        -0.112629        -1.190338
 H        -0.380589         0.378018        -0.803707
 H        -0.481237        -0.666784         0.509003
 H        -0.301012         1.013475         0.922622
 H         2.119744        -0.274170         2.163957
 H         1.352340        -1.760781         1.242863
 H         4.338615        -0.459317         2.184120
 H         5.227496        -1.482417         1.130928
 H         5.858330         0.666621         0.307752
 H         4.187510         2.037326        -0.917397
 H         1.911866         2.060723        -0.995563
