19
Iteration:  4321charge 0 multiplicity 1
 C         0.047688         0.586011         0.302536
 C         1.513340         0.043573         0.121324
 C         2.041152        -1.076435         1.077559
 O         3.263063        -1.532821         0.619191
 C         4.436677        -0.750651         1.118092
 C         4.673998         0.699954         0.577245
 C         3.797315         1.341244        -0.174060
 C         2.458200         0.897154        -0.688838
 O         2.103430        -0.324903        -1.241313
 H        -0.395159        -0.003723         1.090392
 H        -0.164369         1.678543         0.435911
 H        -0.484663         0.409183        -0.661215
 H         1.986616        -0.798547         2.141610
 H         1.262564        -1.921595         0.928848
 H         4.105365        -0.657469         2.257942
 H         5.144502        -1.523982         0.879404
 H         5.809104         0.974837         0.826811
 H         4.171750         2.307286        -0.585888
 H         2.031122         1.837171        -1.331844
