19
Iteration:  2744charge 0 multiplicity 1
 C         0.082879         0.446731         0.340730
 C         1.542413        -0.014813         0.081578
 C         2.030565        -1.056905         1.070999
 O         3.328934        -1.350109         0.609154
 C         4.264181        -0.603657         1.364068
 C         4.768448         0.585636         0.541512
 C         3.961546         1.139701        -0.455107
 C         2.519731         0.914707        -0.652947
 O         1.861977        -0.251817        -1.261360
 H        -0.120627         1.467137        -0.074113
 H        -0.612636        -0.399447         0.095144
 H        -0.241968         0.558575         1.418877
 H         1.999978        -0.751710         2.086960
 H         1.400858        -1.990815         0.959381
 H         4.005632        -0.257644         2.320410
 H         5.155496        -1.242025         1.408380
 H         5.801036         1.045438         0.730066
 H         4.459512         1.920282        -1.039371
 H         2.006827         1.817281        -0.933557
