19
Iteration:  3480charge 0 multiplicity 1
 C         0.188641         0.559979         0.346870
 C         1.560615        -0.041797         0.018433
 C         2.044603        -0.998717         1.078038
 O         3.334216        -1.551671         0.899095
 C         4.535053        -0.714754         1.221128
 C         4.586882         0.644888         0.536851
 C         3.798847         1.228299        -0.389559
 C         2.309455         0.938119        -0.729977
 O         1.937466        -0.223272        -1.370322
 H         0.099424         1.436507        -0.110509
 H        -0.675604        -0.068606         0.083479
 H         0.175973         0.546588         1.375470
 H         1.849906        -0.588624         2.062242
 H         1.312233        -1.876735         0.964675
 H         4.745388        -0.776491         2.409659
 H         5.434692        -1.498778         0.865882
 H         5.518103         1.204538         0.877214
 H         4.093363         2.205384        -0.836537
 H         1.754312         1.891438        -1.101107
