19
Iteration:  3714
 C         0.228544         0.533106         0.377069
 C         1.592333         0.030920         0.054838
 C         1.984442        -1.128039         0.997427
 O         3.363079        -1.551085         0.875274
 C         4.396269        -0.639638         1.242381
 C         4.579518         0.681141         0.565398
 C         3.886550         1.296071        -0.426036
 C         2.455048         0.916613        -0.701577
 O         1.819484        -0.291998        -1.369863
 H         0.068961         1.624664         0.036289
 H        -0.606154        -0.033376        -0.085542
 H         0.165519         0.355956         1.469663
 H         1.889464        -0.597711         2.054197
 H         1.400065        -2.045720         0.942908
 H         4.464126        -0.456636         2.317052
 H         5.444262        -1.188198         0.931717
 H         5.632604         1.046804         0.909430
 H         4.277403         2.236457        -0.730682
 H         1.811121         1.730933        -1.214002
