19
Iteration:  3377
 C        -0.096030         0.257565         0.170623
 C         1.483400         0.121758         0.091731
 C         2.065872        -0.902826         1.124641
 O         3.357061        -1.503177         0.891925
 C         4.515578        -0.764989         1.147979
 C         4.776591         0.468497         0.327054
 C         3.850459         1.221881        -0.305479
 C         2.447968         1.091526        -0.564852
 O         1.938805        -0.143308        -1.264426
 H        -0.593255         0.268769        -0.910856
 H        -0.580394        -0.538915         0.730288
 H        -0.375111         1.277015         0.584969
 H         2.204374        -0.432776         2.088058
 H         1.321679        -1.728624         1.123416
 H         4.486434        -0.394609         2.317117
 H         5.324453        -1.576201         1.070636
 H         5.696528         0.849239         0.588118
 H         4.219846         2.189328        -0.764406
 H         1.984098         1.983888        -0.730487
