19
Iteration:  3895charge 0 multiplicity 1
 C         0.073948         0.477868         0.331268
 C         1.475258         0.053570        -0.000428
 C         2.120181        -0.844672         1.062309
 O         3.369622        -1.368994         0.709909
 C         4.541117        -0.789773         1.254342
 C         4.613341         0.635479         0.681186
 C         3.857963         1.135591        -0.288088
 C         2.420505         0.852992        -0.800366
 O         1.842704        -0.342912        -1.288107
 H        -0.192630         1.239515        -0.390478
 H        -0.639618        -0.188289         0.185737
 H        -0.064671         0.849262         1.348192
 H         2.183033        -0.393707         2.083537
 H         1.535317        -1.791392         1.249981
 H         4.565666        -0.842667         2.387527
 H         5.310212        -1.396261         0.691782
 H         5.503992         1.204413         0.908002
 H         3.979347         2.210015        -0.613373
 H         2.137264         1.715287        -1.450419
