19
Iteration:  2811
 C         0.115660         0.299947         0.185660
 C         1.592567        -0.043458         0.042206
 C         2.065684        -0.963263         1.136382
 O         3.256863        -1.609919         1.127930
 C         4.434260        -0.688489         1.124532
 C         4.647258         0.452590         0.221814
 C         3.769155         1.286437        -0.333617
 C         2.417273         1.129690        -0.572192
 O         2.032427        -0.021603        -1.339532
 H        -0.241228         0.459187        -0.878179
 H        -0.381516        -0.514326         0.664023
 H        -0.201896         1.141185         0.747904
 H         1.845561        -0.467452         2.055820
 H         1.262647        -1.780741         1.151094
 H         4.439463        -0.472057         2.165918
 H         5.219019        -1.427475         0.950971
 H         5.769915         0.811624         0.342606
 H         4.246524         2.114741        -0.716025
 H         1.858133         2.032731        -0.714040
