19
Iteration:  2968charge 0 multiplicity 1
 C         0.054236         0.371105         0.118991
 C         1.588830         0.020634         0.105098
 C         2.029482        -0.963140         1.185271
 O         3.277195        -1.624012         1.021622
 C         4.419654        -0.726006         1.111213
 C         4.711586         0.556131         0.324203
 C         3.812709         1.314010        -0.410701
 C         2.355749         1.036925        -0.579070
 O         2.048529        -0.143405        -1.253933
 H        -0.195280         1.156633        -0.440735
 H        -0.566120        -0.412916        -0.104846
 H        -0.114089         0.616766         1.108605
 H         1.924265        -0.528488         2.203660
 H         1.247693        -1.777203         1.209521
 H         4.615499        -0.405836         2.154571
 H         5.321967        -1.344401         0.884804
 H         5.715065         0.880094         0.286743
 H         4.281894         2.216803        -0.961739
 H         1.836907         2.030046        -0.840192
