19
Iteration:  3142
 C         0.052826         0.382497         0.415340
 C         1.495848         0.089087         0.128813
 C         2.094571        -1.077826         0.927189
 O         3.424627        -1.413299         0.713272
 C         4.261337        -0.558793         1.431345
 C         4.778639         0.556263         0.509252
 C         4.005057         1.045406        -0.472424
 C         2.491439         0.955048        -0.636772
 O         1.774923        -0.130877        -1.339342
 H        -0.430197         1.065540        -0.295426
 H        -0.507390        -0.652338         0.413634
 H        -0.008527         0.810562         1.532411
 H         1.930738        -0.966486         1.986016
 H         1.516853        -1.908761         0.502986
 H         3.593624        -0.200058         2.236965
 H         5.116697        -1.035392         1.847723
 H         5.824560         0.875829         0.543972
 H         4.368910         1.662192        -1.255387
 H         2.193105         1.834288        -1.097506
