19
Iteration:  3712charge 0 multiplicity 1
 C         0.221197         0.558342         0.383879
 C         1.585652         0.026623         0.051031
 C         1.981001        -1.130833         1.001483
 O         3.374823        -1.537093         0.856581
 C         4.411003        -0.638411         1.241086
 C         4.578314         0.687256         0.576772
 C         3.885181         1.284109        -0.434357
 C         2.439368         0.902614        -0.697341
 O         1.829298        -0.290762        -1.353891
 H         0.143143         1.492350         0.013997
 H        -0.642765        -0.020935        -0.157624
 H         0.209298         0.381935         1.429459
 H         1.889521        -0.629615         2.034142
 H         1.377904        -2.086436         0.919861
 H         4.452722        -0.423142         2.371902
 H         5.346602        -1.174625         0.899304
 H         5.537738         0.973558         0.939526
 H         4.304023         2.202519        -0.734370
 H         1.837079         1.721468        -1.197494
