19
Iteration:  4807
 C         0.065937         0.152023         0.147992
 C         1.600721         0.053064         0.030090
 C         2.068376        -1.016252         1.043051
 O         3.270543        -1.569246         0.948092
 C         4.325133        -0.737243         1.302128
 C         4.743982         0.407006         0.296028
 C         3.923502         1.292965        -0.351429
 C         2.407058         1.221401        -0.388379
 O         1.955331         0.067185        -1.369279
 H        -0.126829         0.457103         1.248696
 H        -0.350715         0.958870        -0.403294
 H        -0.418760        -0.822664        -0.230003
 H         1.865014        -0.539473         2.031975
 H         1.265615        -1.846932         0.850147
 H         4.216181        -0.418380         2.392388
 H         5.249744        -1.277494         1.353917
 H         5.835065         0.342689         0.134827
 H         4.376358         2.005151        -1.036889
 H         1.805149         2.181029        -0.518167
