19
Iteration:  4368
 C        -0.008561         0.272604         0.153638
 C         1.527413         0.107839         0.098357
 C         2.003150        -0.993396         1.096532
 O         3.345812        -1.606721         0.873892
 C         4.475254        -0.787802         1.206700
 C         4.736922         0.486607         0.427850
 C         3.796475         1.246496        -0.256325
 C         2.375362         1.115124        -0.515708
 O         2.024956         0.011404        -1.382886
 H        -0.564560        -0.412191         0.884800
 H        -0.216016         1.404918         0.343613
 H        -0.300060         0.146626        -0.887381
 H         2.159410        -0.412554         2.079557
 H         1.305037        -1.758168         1.228050
 H         4.421151        -0.613926         2.362854
 H         5.321330        -1.511809         0.806056
 H         5.780190         0.734615         0.445357
 H         4.309771         1.991705        -0.906290
 H         1.925751         2.063105        -0.706925
