19
Iteration:  1704charge 0 multiplicity 1
 C         0.120373         0.609224         0.259865
 C         1.521520        -0.021140         0.125971
 C         2.036704        -1.106349         1.127445
 O         3.366613        -1.509841         1.029645
 C         4.317707        -0.339817         1.311081
 C         4.711982         0.571609         0.295356
 C         3.896640         1.114061        -0.617406
 C         2.402639         0.912850        -0.663702
 O         1.951426        -0.455921        -1.241070
 H         0.286354         1.624862         0.857996
 H        -0.187590         1.036139        -0.751358
 H        -0.762930         0.101624         0.653743
 H         1.801181        -0.658108         2.160511
 H         1.439949        -1.943639         0.855991
 H         3.882036         0.174421         2.181278
 H         5.295572        -0.703818         1.854934
 H         5.779744         0.886747         0.189388
 H         4.299023         1.809072        -1.455001
 H         1.935555         1.694236        -1.183251
