19
Iteration:  2254
 C         0.057105         0.350523         0.264565
 C         1.577033         0.030545         0.133254
 C         2.001459        -1.011287         1.134696
 O         3.362668        -1.294455         0.961801
 C         4.342425        -0.318858         1.489878
 C         4.788470         0.450793         0.234012
 C         3.914280         0.923012        -0.691037
 C         2.455857         0.959615        -0.690966
 O         1.843120        -0.270899        -1.196680
 H        -0.450744         0.527879         1.310136
 H        -0.055148         1.147214        -0.532897
 H        -0.296130        -0.478851        -0.177057
 H         1.735045        -0.672218         2.139169
 H         1.506586        -1.970688         0.938329
 H         3.931869         0.305963         2.191786
 H         5.225685        -0.827662         1.913092
 H         5.841666         0.563051         0.036813
 H         4.490016         1.307499        -1.530847
 H         2.083935         2.006802        -0.978500
