19
Iteration:  2454
 C         0.029273         0.326072         0.169116
 C         1.491796        -0.022526         0.097605
 C         2.053345        -0.740823         1.232409
 O         3.218107        -1.474429         1.151797
 C         4.474865        -0.759944         1.053620
 C         4.683134         0.562861         0.282286
 C         3.828298         1.264286        -0.460931
 C         2.412441         0.994836        -0.694112
 O         2.107873        -0.337661        -1.240857
 H        -0.176925         0.728664        -0.805680
 H        -0.510926        -0.586610         0.298917
 H        -0.195834         1.108351         0.950941
 H         2.058210         0.052346         2.052228
 H         1.201896        -1.374201         1.544262
 H         4.636802        -0.384755         2.042489
 H         5.217699        -1.562613         0.835110
 H         5.748680         0.900377         0.312157
 H         4.200451         2.265745        -0.806191
 H         1.872888         1.813343        -1.112273
