19
Iteration:  1599
 C         0.022465         0.404072         0.129966
 C         1.518393         0.017128         0.096404
 C         2.010745        -0.726721         1.293226
 O         3.303220        -1.431074         1.058687
 C         4.445886        -0.647019         1.192175
 C         4.725928         0.543607         0.207208
 C         3.846313         1.220178        -0.552824
 C         2.421308         0.914552        -0.714344
 O         2.058132        -0.483207        -1.104205
 H        -0.241366         1.381229         0.587603
 H        -0.162130         0.631392        -0.907170
 H        -0.862970        -0.242611         0.304876
 H         1.890811        -0.119622         2.217195
 H         1.185107        -1.532504         1.365140
 H         4.509925        -0.280289         2.227290
 H         5.206491        -1.307670         1.011119
 H         5.712722         0.912344         0.414046
 H         4.261491         2.189604        -1.019068
 H         1.778258         1.746927        -1.244404
