19
Iteration:  4860charge 0 multiplicity 1
 C         0.058825         0.517697         0.247177
 C         1.499921         0.013460         0.029069
 C         2.024039        -1.161391         0.899096
 O         3.394240        -1.482850         0.662619
 C         4.368583        -0.685965         1.324089
 C         4.651951         0.561531         0.520125
 C         3.899652         1.224461        -0.330583
 C         2.444753         1.052928        -0.424233
 O         1.961988        -0.198612        -1.243731
 H        -0.010517         1.421738         0.788748
 H        -0.271312         0.601459        -0.742327
 H        -0.489591        -0.258280         0.818186
 H         1.839763        -0.924501         1.964522
 H         1.416755        -2.098180         0.803277
 H         4.061880        -0.464111         2.335015
 H         5.340643        -1.077777         1.478308
 H         5.719258         0.853887         0.509495
 H         4.295595         1.994429        -0.992059
 H         1.973336         2.054403        -0.808557
