19
Iteration:   959charge 0 multiplicity 1
 C         0.162594         0.354102         0.258455
 C         1.572192         0.032912        -0.025970
 C         2.095576        -0.661989         1.250580
 O         3.265198        -1.439861         0.997315
 C         4.367146        -0.634309         1.319667
 C         4.676581         0.548526         0.439662
 C         3.835143         1.167771        -0.543729
 C         2.414278         0.885608        -0.870063
 O         1.938688        -0.444945        -1.255873
 H        -0.017444         1.272610         0.952634
 H        -0.318685         0.579045        -0.725094
 H        -0.469672        -0.484590         0.719094
 H         2.183002         0.122095         2.039132
 H         1.430235        -1.339039         1.749347
 H         4.486467        -0.300946         2.358823
 H         5.287353        -1.305572         1.199450
 H         5.623970         1.058952         0.541632
 H         4.182900         2.045382        -1.152796
 H         1.811177         1.658332        -1.450581
