19
Iteration:  2751
 C         0.054492         0.394104         0.352895
 C         1.541911         0.043611         0.105857
 C         2.016549        -1.026715         1.082971
 O         3.306014        -1.334404         0.612730
 C         4.363000        -0.646087         1.342594
 C         4.769748         0.563029         0.541896
 C         3.996147         1.113549        -0.452085
 C         2.450781         0.915286        -0.596740
 O         1.880116        -0.235500        -1.306892
 H        -0.183901         1.183201        -0.377968
 H        -0.568092        -0.444336        -0.123443
 H        -0.167086         0.747817         1.448214
 H         2.005062        -0.655647         2.176240
 H         1.406108        -1.896802         0.928139
 H         3.883404        -0.244858         2.339965
 H         5.204579        -1.264390         1.633871
 H         5.641636         1.119723         0.618726
 H         4.408333         1.894851        -1.131029
 H         2.027500         1.870121        -0.905967
