19
Iteration:   702charge 0 multiplicity 1
 C         0.105972         0.470372         0.166416
 C         1.582387         0.003453        -0.002359
 C         2.146415        -0.807864         1.178269
 O         3.368350        -1.479883         1.242599
 C         4.494912        -0.615334         1.346362
 C         4.617470         0.565759         0.365592
 C         3.779931         1.120567        -0.537469
 C         2.393733         0.875146        -0.768101
 O         1.810948        -0.354439        -1.411032
 H         0.094250         1.456150         0.690655
 H        -0.206572         0.661354        -0.810356
 H        -0.463551        -0.359930         0.606959
 H         2.049183         0.016615         1.959230
 H         1.344887        -1.626926         1.530983
 H         4.666230        -0.255904         2.371749
 H         5.285640        -1.248151         1.178935
 H         5.632016         0.981748         0.390033
 H         4.398070         1.967265        -1.115884
 H         1.821507         1.872226        -1.049236
