19
Iteration:  3348
 C         0.199876         0.391645         0.323194
 C         1.593107         0.000395         0.017589
 C         2.022923        -0.987418         1.094312
 O         3.273987        -1.583619         0.896241
 C         4.406230        -0.743456         1.128223
 C         4.592360         0.614992         0.462596
 C         3.740129         1.332932        -0.315403
 C         2.391719         1.045669        -0.704690
 O         2.058198        -0.218454        -1.298805
 H        -0.409987         0.696020        -0.404127
 H        -0.356159        -0.305587         0.961844
 H         0.360129         1.273614         0.837763
 H         2.055028        -0.502017         2.125924
 H         1.206645        -1.776600         1.178615
 H         4.533089        -0.608390         2.157908
 H         5.233177        -1.415249         0.766456
 H         5.696721         0.923291         0.611354
 H         4.175452         2.127199        -0.824484
 H         1.779785         2.031913        -1.005507
