19
Iteration:  2621
 C        -0.002799         0.308179         0.244588
 C         1.477759         0.052804         0.158197
 C         1.986248        -1.011383         1.057951
 O         3.372139        -1.365763         0.804071
 C         4.379536        -0.512764         1.419587
 C         4.840995         0.446524         0.262538
 C         3.922936         1.092517        -0.510048
 C         2.455253         0.969092        -0.501389
 O         1.956735        -0.165495        -1.227326
 H        -0.492820         0.454034         1.196753
 H        -0.239125         1.313142        -0.378899
 H        -0.538076        -0.519668        -0.373365
 H         1.755595        -0.643697         2.065640
 H         1.384166        -1.911572         0.877540
 H         3.760838         0.127354         2.119204
 H         5.292080        -0.915290         1.870911
 H         5.887343         0.335800        -0.071592
 H         4.250634         1.786652        -1.261458
 H         1.912323         1.810188        -0.807248
