19
Iteration:  3187charge 0 multiplicity 1
 C         0.110667         0.309755         0.211896
 C         1.597962        -0.073684         0.078621
 C         2.006677        -1.119720         1.029326
 O         3.358546        -1.556427         1.075969
 C         4.354041        -0.497975         1.298037
 C         4.749354         0.376909         0.195443
 C         3.862696         1.184191        -0.464784
 C         2.399452         1.114725        -0.426615
 O         1.918465         0.071140        -1.376484
 H        -0.163380         0.874153        -0.655430
 H        -0.456338        -0.720402         0.203065
 H        -0.131766         0.935892         1.231628
 H         1.611911        -0.789428         2.107164
 H         1.405404        -2.037082         0.752581
 H         4.082376         0.141699         2.137289
 H         5.251334        -1.050061         1.570258
 H         5.859117         0.463101        -0.115178
 H         4.217623         1.901789        -1.146925
 H         1.870648         1.992519        -0.298848
