19
Iteration:  1042
 C         0.087967         0.324348         0.046711
 C         1.546966         0.112692         0.111506
 C         2.023029        -0.688675         1.436327
 O         3.159556        -1.472624         1.084132
 C         4.335204        -0.701447         1.088630
 C         4.640803         0.567756         0.201913
 C         3.801229         1.288086        -0.586714
 C         2.396754         0.946864        -0.800158
 O         2.264897        -0.492769        -0.997549
 H        -0.143805         0.694660         1.004033
 H        -0.147794         1.220142        -0.619242
 H        -0.476309        -0.516199        -0.249558
 H         2.216080         0.042120         2.171544
 H         1.283447        -1.458860         1.690135
 H         4.474800        -0.217371         2.136100
 H         5.103465        -1.425922         0.871450
 H         5.716962         0.736057         0.239171
 H         4.261416         2.057355        -1.084084
 H         1.884132         1.582641        -1.469521
