19
Iteration:  3908charge 0 multiplicity 1
 C         0.039692         0.515468         0.244289
 C         1.477246         0.025929         0.090643
 C         2.071789        -0.897380         1.144561
 O         3.346235        -1.381880         0.612302
 C         4.509011        -0.711610         1.180385
 C         4.704807         0.622168         0.620473
 C         3.824993         1.153701        -0.259650
 C         2.472857         0.840972        -0.720915
 O         1.879837        -0.379908        -1.287265
 H        -0.231744         1.354978        -0.321977
 H        -0.594917        -0.430726         0.192979
 H         0.020106         0.942051         1.277169
 H         2.190592        -0.218408         2.084410
 H         1.217546        -1.752954         1.302564
 H         4.430518        -0.641081         2.250211
 H         5.421282        -1.345860         1.190412
 H         5.550679         1.268574         1.023978
 H         4.224169         2.124980        -0.614768
 H         1.894358         1.760481        -1.158244
