19
Iteration:  3063
 C         0.198801         0.519467         0.409333
 C         1.634688         0.037597         0.032780
 C         2.038628        -1.129281         0.897438
 O         3.388530        -1.558134         0.877761
 C         4.364181        -0.590816         1.327839
 C         4.641215         0.542807         0.474617
 C         3.855212         1.239157        -0.357567
 C         2.421862         0.977077        -0.703072
 O         1.801576        -0.209872        -1.376530
 H        -0.287099         1.121676        -0.501496
 H        -0.441157        -0.426961         0.710240
 H         0.175823         1.240170         1.348617
 H         1.799002        -0.941174         1.903106
 H         1.388459        -1.955335         0.654435
 H         4.107764        -0.242141         2.480541
 H         5.313749        -1.077956         1.462848
 H         5.601726         0.960836         0.678402
 H         4.427271         2.008923        -0.943650
 H         1.962175         1.915479        -0.760427
