19
Iteration:  1672
 C         0.098321         0.337138         0.379294
 C         1.585203         0.089486         0.081980
 C         2.045317        -0.876250         1.178363
 O         3.291141        -1.398108         1.047124
 C         4.405223        -0.471942         1.400970
 C         4.714548         0.524991         0.345547
 C         3.924450         1.087435        -0.573799
 C         2.423786         0.898575        -0.833710
 O         1.877417        -0.344672        -1.413454
 H        -0.063554         1.404906         0.803247
 H        -0.491556         0.269710        -0.552590
 H        -0.443299        -0.328264         0.988939
 H         1.735777        -0.405992         2.148087
 H         1.335423        -1.649088         1.090550
 H         4.085724        -0.013606         2.389760
 H         5.338648        -1.199486         1.559733
 H         5.798448         0.661881         0.357369
 H         4.557672         1.719267        -1.322914
 H         2.032889         1.822135        -1.307745
