19
Iteration:  2124charge 0 multiplicity 1
 C         0.169848         0.608141         0.249797
 C         1.525531        -0.077937         0.079978
 C         2.065774        -1.001260         1.146127
 O         3.359160        -1.318210         0.837080
 C         4.331481        -0.487380         1.327653
 C         4.742073         0.692472         0.427190
 C         3.918981         1.035657        -0.541995
 C         2.472304         0.785208        -0.683490
 O         1.785197        -0.472527        -1.231888
 H         0.083185         1.347986         1.113689
 H        -0.206016         1.131699        -0.676213
 H        -0.499222        -0.268860         0.455102
 H         2.057715        -0.391464         2.123546
 H         1.425634        -1.885446         1.272789
 H         3.815505         0.066617         2.222949
 H         5.186231        -1.133556         1.799828
 H         5.741766         1.230974         0.502765
 H         4.256310         1.801412        -1.273936
 H         2.061945         1.554819        -1.251211
