19
Iteration:   185charge 0 multiplicity 1
 C         0.173468         0.417219         0.035078
 C         1.622404         0.011770         0.079883
 C         2.103954        -0.692131         1.410615
 O         3.278084        -1.430102         1.248825
 C         4.449174        -0.738705         1.046661
 C         4.551291         0.525142         0.231330
 C         3.802218         1.314826        -0.475877
 C         2.357829         0.959580        -0.753413
 O         1.950428        -0.488622        -1.225653
 H        -0.228799         0.771967         1.040312
 H         0.069319         1.278601        -0.672067
 H        -0.350851        -0.522414        -0.298148
 H         2.078705         0.017578         2.220961
 H         1.344667        -1.427084         1.676302
 H         4.791721        -0.435727         2.011416
 H         5.329035        -1.478238         0.728071
 H         5.573018         0.734296         0.376896
 H         4.288316         2.086484        -0.957145
 H         1.666041         1.567090        -1.336394
