19
Iteration:  4979
 C         0.002561         0.361667         0.086147
 C         1.483649         0.039540         0.089416
 C         1.999765        -1.094753         1.071767
 O         3.352118        -1.490188         0.735412
 C         4.378923        -0.633956         1.289188
 C         4.783214         0.437280         0.303171
 C         3.922885         1.260200        -0.307462
 C         2.406894         1.084975        -0.367261
 O         2.019215        -0.094979        -1.190224
 H        -0.427895         0.383646         1.107832
 H        -0.243007         1.305489        -0.395542
 H        -0.542971        -0.549052        -0.401330
 H         1.689987        -0.991640         2.097650
 H         1.415626        -1.878803         0.736365
 H         4.209410        -0.168982         2.308285
 H         5.254826        -1.349861         1.459847
 H         5.804306         0.578366         0.060698
 H         4.297714         2.045782        -0.945268
 H         1.818577         2.007151        -0.689819
