19
Iteration:  1402charge 0 multiplicity 1
 C         0.080036         0.405704         0.235537
 C         1.475351        -0.010260        -0.012639
 C         2.009168        -0.731903         1.166176
 O         3.395778        -1.388918         1.051273
 C         4.458925        -0.518230         1.408169
 C         4.750708         0.580135         0.416151
 C         3.877044         0.934299        -0.587966
 C         2.445123         0.837580        -0.728209
 O         1.816461        -0.357985        -1.353839
 H        -0.109779         1.392079         0.746407
 H        -0.478000         0.615890        -0.690384
 H        -0.510448        -0.240409         0.920924
 H         1.999929        -0.050485         2.031183
 H         1.446108        -1.670937         1.451489
 H         4.375779        -0.117916         2.417590
 H         5.532186        -1.077706         1.199553
 H         5.796310         1.020333         0.414911
 H         4.266957         1.827820        -1.190891
 H         2.071251         1.745805        -1.188217
