19
Iteration:  2538
 C         0.098849         0.397593         0.347957
 C         1.523749         0.060081        -0.000210
 C         2.061825        -0.761210         1.105970
 O         3.288296        -1.472367         0.924075
 C         4.494153        -0.643725         1.275404
 C         4.684053         0.605428         0.479195
 C         3.847719         1.190271        -0.373652
 C         2.429157         0.824741        -0.798394
 O         1.893046        -0.359564        -1.360361
 H        -0.614858        -0.544407         0.196392
 H         0.074867         0.762443         1.372231
 H        -0.304504         1.139445        -0.301719
 H         2.198943        -0.126297         1.979793
 H         1.413737        -1.581274         1.447890
 H         4.546259        -0.645153         2.390427
 H         5.305361        -1.301603         1.011082
 H         5.541606         1.124697         0.734584
 H         4.181788         2.080674        -0.956343
 H         2.023352         1.790107        -1.296141
