19
Iteration:  3533charge 0 multiplicity 1
 C         0.046129         0.368406         0.300398
 C         1.569737         0.120865         0.125847
 C         2.078933        -1.009641         1.103479
 O         3.337095        -1.354574         0.650902
 C         4.378029        -0.664020         1.305596
 C         4.700518         0.493633         0.487500
 C         3.920358         1.168356        -0.410660
 C         2.496944         0.966340        -0.673776
 O         1.830998        -0.255873        -1.243365
 H        -0.247314         1.362585        -0.126502
 H        -0.394879        -0.612041        -0.210497
 H        -0.178444         0.397163         1.380562
 H         2.072680        -0.665703         2.138726
 H         1.326482        -1.868557         1.067660
 H         4.046001        -0.289164         2.231963
 H         5.226935        -1.363149         1.490881
 H         5.706534         1.033236         0.619400
 H         4.362440         2.086545        -0.825784
 H         2.047010         1.833675        -1.117576
