19
Iteration:  1089charge 0 multiplicity 1
 C         0.029922         0.267149         0.072175
 C         1.548592         0.036868         0.030308
 C         2.029665        -0.588713         1.375734
 O         3.202082        -1.360624         1.178218
 C         4.516377        -0.718924         1.165041
 C         4.709814         0.507281         0.243231
 C         3.843411         1.170972        -0.460210
 C         2.428446         0.906975        -0.735582
 O         2.004911        -0.384829        -1.238872
 H        -0.323068         0.733215         0.926327
 H        -0.273121         0.869005        -0.733816
 H        -0.447839        -0.678047        -0.112319
 H         2.065349         0.164313         2.145343
 H         1.330895        -1.431623         1.542562
 H         4.837650        -0.255082         2.159897
 H         5.173555        -1.481466         0.908272
 H         5.749333         0.826528         0.233414
 H         4.417755         2.033184        -1.017117
 H         1.825433         1.637088        -1.319033
