19
Iteration:  3038
 C        -0.011853         0.273846         0.338499
 C         1.522160         0.040932         0.044736
 C         2.042823        -1.022527         1.052832
 O         3.328142        -1.457597         0.779400
 C         4.339804        -0.664962         1.338301
 C         4.753885         0.569729         0.421546
 C         3.999812         1.123950        -0.479827
 C         2.447643         1.017216        -0.590261
 O         1.909199        -0.067394        -1.320995
 H        -0.538401         0.718344        -0.582877
 H        -0.503703        -0.608801         0.810311
 H        -0.037260         1.081466         1.075775
 H         2.041184        -0.792270         2.118054
 H         1.351175        -1.837347         1.027224
 H         4.033143        -0.315281         2.432606
 H         5.285612        -1.236698         1.559031
 H         5.870253         0.841049         0.592187
 H         4.391265         1.851477        -1.142738
 H         2.123371         2.116369        -0.706932
