19
Iteration:  4105charge 0 multiplicity 1
 C         0.246698         0.571699         0.432693
 C         1.576643        -0.003423        -0.007966
 C         2.087122        -1.083737         0.958904
 O         3.409654        -1.524238         0.813609
 C         4.318659        -0.561897         1.420191
 C         4.594179         0.587454         0.574779
 C         3.854273         1.095573        -0.431318
 C         2.406445         0.910662        -0.728676
 O         1.840931        -0.210323        -1.430889
 H        -0.044320         1.445205        -0.101287
 H        -0.598174        -0.172021         0.382693
 H         0.462363         0.848164         1.506417
 H         1.809406        -0.844706         1.993954
 H         1.441641        -1.971999         0.684463
 H         3.879072        -0.272697         2.354316
 H         5.272808        -1.140677         1.633074
 H         5.513775         1.165481         0.695658
 H         4.205745         2.043644        -0.775872
 H         1.986289         1.921698        -1.094976
