19
Iteration:  1162
 C         0.141946         0.425793         0.280035
 C         1.597482         0.061616         0.007670
 C         1.994301        -0.769608         1.221489
 O         3.230877        -1.411421         0.976086
 C         4.333234        -0.584302         1.238248
 C         4.686736         0.612937         0.384530
 C         3.824607         1.194234        -0.534954
 C         2.495647         0.859290        -0.787977
 O         2.014904        -0.553965        -1.198771
 H         0.149427         1.246540         1.076409
 H        -0.345631         0.987022        -0.645202
 H        -0.582341        -0.379770         0.542567
 H         2.081394        -0.178009         2.183081
 H         1.282956        -1.597679         1.303030
 H         4.256559        -0.147135         2.226804
 H         5.355978        -1.140852         1.211100
 H         5.698504         1.036845         0.517547
 H         4.263966         1.924982        -1.108335
 H         1.964003         1.554358        -1.411699
