19
Iteration:   512charge 0 multiplicity 1
 C        -0.044013         0.459350         0.115242
 C         1.499349         0.022079         0.177637
 C         2.095703        -0.833578         1.263058
 O         3.335902        -1.342414         0.798689
 C         4.414657        -0.571291         1.291155
 C         4.806480         0.557379         0.321188
 C         3.956107         1.100822        -0.551897
 C         2.454206         0.836707        -0.712210
 O         1.872050        -0.443299        -1.107773
 H        -0.221901         1.378420         0.581613
 H        -0.357990         0.639517        -0.947688
 H        -0.712807        -0.259538         0.529194
 H         2.171477        -0.379003         2.283570
 H         1.396731        -1.675833         1.562492
 H         3.936361         0.001135         2.191411
 H         5.204296        -1.046875         1.711893
 H         5.833058         0.983390         0.519157
 H         4.265722         1.924535        -1.075874
 H         1.917024         1.611297        -1.222605
