19
Iteration:   914charge 0 multiplicity 1
 C         0.033779         0.578144         0.106505
 C         1.468823        -0.017614         0.132570
 C         1.952631        -0.987117         1.169814
 O         3.324024        -1.413824         1.082846
 C         4.491781        -0.529401         1.269108
 C         4.773267         0.568197         0.227895
 C         3.820619         1.238025        -0.624538
 C         2.412496         0.837262        -0.680169
 O         2.021045        -0.470757        -1.081057
 H        -0.038003         1.280840         0.965214
 H        -0.017960         1.168377        -0.907615
 H        -0.878697        -0.055323         0.193653
 H         1.656583        -0.532672         2.119955
 H         1.361105        -1.897113         1.172408
 H         4.468699         0.083512         2.242292
 H         5.411917        -1.130107         1.408426
 H         5.812875         0.821299         0.131202
 H         4.273264         2.005157        -1.168201
 H         1.935569         1.619813        -1.348349
