19
Iteration:  2757
 C         0.047193         0.364634         0.317660
 C         1.486208         0.076769         0.151929
 C         2.017221        -0.977749         1.056958
 O         3.331169        -1.345354         0.656630
 C         4.418706        -0.643494         1.324897
 C         4.744279         0.565062         0.490082
 C         3.987166         1.065920        -0.416293
 C         2.440190         0.931023        -0.569211
 O         1.890489        -0.207033        -1.327858
 H        -0.271765         1.036329        -0.498437
 H        -0.512701        -0.483501         0.020591
 H        -0.117304         0.719632         1.260459
 H         1.964957        -0.654714         2.075643
 H         1.347233        -1.894518         1.004543
 H         3.932804        -0.384949         2.223541
 H         5.207955        -1.395801         1.751818
 H         5.821581         0.997509         0.681572
 H         4.314849         1.848273        -1.062496
 H         2.021629         1.940838        -0.959915
