19
Iteration:  3507charge 0 multiplicity 1
 C         0.025118         0.529482         0.392909
 C         1.522139         0.021721         0.003324
 C         2.134863        -0.977878         0.988910
 O         3.382403        -1.479917         0.738576
 C         4.467467        -0.642660         1.268569
 C         4.686440         0.611280         0.619962
 C         3.888008         1.152222        -0.320402
 C         2.428082         0.887544        -0.711090
 O         1.798976        -0.300913        -1.358537
 H        -0.042738         1.691192         0.063005
 H        -0.662968        -0.190986        -0.086935
 H        -0.097525         0.469281         1.549592
 H         2.124402        -0.367493         2.032187
 H         1.393426        -1.728424         1.140533
 H         4.323716        -0.517585         2.359432
 H         5.290003        -1.236386         1.202076
 H         5.650347         1.018172         0.765908
 H         4.228424         2.056904        -0.800834
 H         2.008606         1.782791        -1.184891
