19
Iteration:   790charge 0 multiplicity 1
 C         0.108102         0.608328         0.045166
 C         1.455674        -0.060915         0.248768
 C         2.040409        -1.037910         1.215523
 O         3.376766        -1.415067         0.995271
 C         4.386622        -0.424325         1.358854
 C         4.745406         0.554098         0.201377
 C         3.875184         1.108949        -0.651085
 C         2.407066         0.848942        -0.597736
 O         1.958735        -0.421924        -1.169563
 H        -0.199013         1.210996         0.908007
 H         0.118852         1.310811        -0.737769
 H        -0.742506         0.002079        -0.225234
 H         1.899942        -0.686453         2.191629
 H         1.380735        -1.995513         1.261217
 H         4.049290         0.207034         2.302696
 H         5.228950        -0.974116         1.654935
 H         5.777418         0.906797         0.091389
 H         4.044954         1.940957        -1.481927
 H         1.803253         1.762144        -0.978710
