19
Iteration:  3062charge 0 multiplicity 1
 C         0.194790         0.511627         0.409959
 C         1.636516         0.037881         0.032804
 C         2.032616        -1.125783         0.897091
 O         3.385699        -1.559757         0.874602
 C         4.365462        -0.584717         1.326385
 C         4.640425         0.549091         0.470435
 C         3.865175         1.232576        -0.356059
 C         2.424446         0.977244        -0.698056
 O         1.800269        -0.205957        -1.373505
 H        -0.306097         1.100441        -0.510201
 H        -0.426584        -0.434476         0.702531
 H         0.156695         1.229574         1.324898
 H         1.786681        -0.918055         1.916042
 H         1.401579        -1.955602         0.687507
 H         4.107194        -0.260204         2.462686
 H         5.313903        -1.092230         1.463626
 H         5.635125         0.956601         0.683213
 H         4.439893         1.980978        -0.934336
 H         1.947312         1.937343        -0.775426
