19
Iteration:  2765
 C         0.019544         0.334177         0.225897
 C         1.454548         0.093812         0.138296
 C         2.040179        -0.941166         1.022531
 O         3.376006        -1.389805         0.730163
 C         4.417408        -0.645312         1.322896
 C         4.808065         0.517975         0.486887
 C         3.879896         1.051104        -0.405314
 C         2.446709         0.955329        -0.575590
 O         1.893169        -0.145142        -1.306646
 H        -0.398743         1.053128        -0.528024
 H        -0.490128        -0.678252         0.416934
 H        -0.269246         0.811378         1.252201
 H         1.983641        -0.573983         2.063063
 H         1.399535        -1.851638         1.035143
 H         4.112195        -0.295737         2.339974
 H         5.220808        -1.326774         1.411470
 H         5.894699         0.748564         0.565529
 H         4.313020         1.898820        -0.969531
 H         2.078302         1.860342        -0.920099
