19
Iteration:  2952charge 0 multiplicity 1
 C         0.166890         0.373430         0.253935
 C         1.570401         0.032226         0.010903
 C         2.022375        -0.936182         1.172151
 O         3.272339        -1.547934         0.988873
 C         4.446676        -0.774725         1.101091
 C         4.574388         0.539032         0.399589
 C         3.811772         1.383010        -0.360698
 C         2.433545         1.118352        -0.618037
 O         2.006612        -0.308029        -1.308664
 H         0.023461         1.473404        -0.327171
 H        -0.486548        -0.504341        -0.256572
 H        -0.218517         0.431333         1.378764
 H         1.936935        -0.230681         2.108809
 H         1.321891        -1.792682         1.236334
 H         4.696892        -0.634879         2.143959
 H         5.196068        -1.451782         0.728717
 H         5.650434         0.980443         0.541451
 H         4.219854         2.253751        -0.788830
 H         1.828695         1.817179        -1.114868
