19
Iteration:  4364
 C         0.011681         0.329306         0.154326
 C         1.537156         0.057685         0.059753
 C         2.032119        -1.009195         1.099317
 O         3.324179        -1.573401         0.858817
 C         4.459765        -0.813590         1.195094
 C         4.717124         0.494168         0.416104
 C         3.807583         1.270030        -0.247021
 C         2.369697         1.110346        -0.510328
 O         2.026534        -0.025040        -1.341798
 H        -0.481903        -0.248788         0.863475
 H        -0.238136         1.362484         0.361246
 H        -0.230717         0.164712        -0.889299
 H         2.044840        -0.599734         2.113570
 H         1.318986        -1.895423         1.319146
 H         4.462128        -0.635511         2.276696
 H         5.287365        -1.401457         0.910719
 H         5.815981         0.842507         0.447413
 H         4.314808         2.082306        -0.821462
 H         1.820144         2.114758        -0.822826
