19
Iteration:  1107charge 0 multiplicity 1
 C        -0.040880         0.257536         0.035322
 C         1.440607         0.025290         0.008500
 C         2.105168        -0.593071         1.244531
 O         3.339283        -1.312526         1.161999
 C         4.573289        -0.718402         1.280921
 C         4.759235         0.499845         0.401786
 C         3.919605         1.040553        -0.493362
 C         2.362857         0.940532        -0.730584
 O         1.838969        -0.349932        -1.299978
 H        -0.384041         0.891816         0.958175
 H        -0.435047         0.869581        -0.932117
 H        -0.635809        -0.683542         0.090726
 H         2.433751         0.337465         1.829107
 H         1.464804        -1.247287         1.862468
 H         4.922546        -0.568997         2.298918
 H         5.397507        -1.487027         0.873442
 H         5.769548         0.888078         0.522188
 H         4.206119         1.853366        -1.011006
 H         1.910053         1.787299        -1.203202
