19
Iteration:   867charge 0 multiplicity 1
 C         0.002180         0.255859         0.312994
 C         1.497276         0.028496         0.009769
 C         2.117053        -0.741689         1.180372
 O         3.381384        -1.423769         1.083118
 C         4.354401        -0.493845         1.490247
 C         4.721494         0.505665         0.295510
 C         3.992303         0.945730        -0.673972
 C         2.466520         0.942380        -0.788001
 O         1.819907        -0.218762        -1.354545
 H        -0.169221         0.614433         1.292482
 H        -0.472148         0.910064        -0.437968
 H        -0.490055        -0.692403         0.218495
 H         2.088617        -0.055490         2.063976
 H         1.301751        -1.496464         1.502659
 H         4.084928        -0.055408         2.476900
 H         5.245360        -1.006571         1.695630
 H         5.801960         0.720511         0.293442
 H         4.478576         1.546422        -1.604766
 H         2.040444         1.954777        -1.044886
