19
Iteration:  3912
 C         0.045297         0.528361         0.228945
 C         1.505908         0.008568         0.092804
 C         2.066629        -0.895929         1.154128
 O         3.336321        -1.395290         0.601517
 C         4.470438        -0.702624         1.167643
 C         4.721788         0.613889         0.575285
 C         3.863485         1.179954        -0.227736
 C         2.453870         0.855003        -0.680903
 O         1.894427        -0.395216        -1.279935
 H        -0.348500         1.423249        -0.387736
 H        -0.643220        -0.505754         0.183789
 H        -0.079285         0.964741         1.245390
 H         2.192570        -0.306361         2.095365
 H         1.347605        -1.747612         1.362467
 H         4.294692        -0.501936         2.243950
 H         5.373107        -1.283636         1.187302
 H         5.520180         1.238636         0.962835
 H         4.164014         2.090039        -0.704043
 H         1.905232         1.693997        -1.031429
