19
Iteration:  4674
 C         0.094650         0.463049         0.342942
 C         1.496845         0.011729        -0.071271
 C         2.068292        -0.996863         1.016904
 O         3.396524        -1.525265         0.884185
 C         4.454637        -0.731734         1.279717
 C         4.672417         0.552053         0.596553
 C         3.903619         1.212916        -0.341602
 C         2.392679         0.960926        -0.717253
 O         1.876415        -0.163323        -1.419705
 H        -0.659924         0.069221        -0.374084
 H        -0.105827         0.227799         1.389751
 H        -0.217699         1.540194         0.338008
 H         1.955951        -0.422972         1.964711
 H         1.302134        -1.859663         1.208013
 H         4.494464        -0.670586         2.367678
 H         5.219441        -1.375077         0.896272
 H         5.561510         1.127288         1.123811
 H         4.100450         2.266638        -0.460259
 H         1.933760         1.916830        -1.131325
