19
Iteration:  3144
 C         0.029754         0.380265         0.417845
 C         1.498589         0.086464         0.120772
 C         2.099343        -1.070468         0.928908
 O         3.423551        -1.418419         0.716727
 C         4.270753        -0.545590         1.432386
 C         4.782997         0.539589         0.509810
 C         3.998164         1.046488        -0.478994
 C         2.489875         0.955202        -0.629005
 O         1.782232        -0.126252        -1.336178
 H        -0.428537         0.989608        -0.275566
 H        -0.497400        -0.578267         0.402956
 H        -0.064904         0.786730         1.462547
 H         1.919364        -0.941582         1.926534
 H         1.502466        -1.912302         0.478146
 H         3.562591        -0.178706         2.276890
 H         5.194347        -1.050862         1.841408
 H         5.887462         0.840951         0.497617
 H         4.402892         1.644566        -1.249399
 H         2.143194         1.889875        -1.038636
