19
Iteration:   622
 C        -0.035810         0.257774         0.160507
 C         1.475979         0.126400         0.099067
 C         2.111880        -0.628000         1.286316
 O         3.318514        -1.396367         1.023277
 C         4.438554        -0.639338         1.307524
 C         4.759928         0.486534         0.353428
 C         3.905144         1.090614        -0.572118
 C         2.409619         0.860935        -0.753453
 O         1.946342        -0.334454        -1.276121
 H        -0.400506         0.317516         1.124178
 H        -0.378911         1.109649        -0.486542
 H        -0.443499        -0.609397        -0.271841
 H         2.238180         0.139066         2.082958
 H         1.295845        -1.318564         1.577504
 H         4.334160        -0.298003         2.329217
 H         5.262945        -1.324504         1.258859
 H         5.787998         0.904335         0.348485
 H         4.214793         1.874827        -1.152538
 H         2.014217         1.707988        -1.296944
