19
Iteration:  3984charge 0 multiplicity 1
 C         0.096883         0.165919         0.185589
 C         1.565717         0.001766        -0.090522
 C         2.025107        -1.007153         1.085191
 O         3.287490        -1.556577         1.180720
 C         4.461041        -0.711533         1.273203
 C         4.714195         0.336319         0.234074
 C         3.929952         1.307058        -0.370253
 C         2.384687         1.178653        -0.530016
 O         1.867662         0.102697        -1.385438
 H        -0.400315         0.652789        -0.610247
 H        -0.235905        -0.811481         0.274449
 H        -0.145672         0.761679         1.080902
 H         1.786338        -0.555587         2.028772
 H         1.337929        -1.932668         1.193796
 H         4.512450        -0.106438         2.331990
 H         5.352769        -1.444387         1.212409
 H         5.827562         0.672380         0.071204
 H         4.381693         1.986607        -1.096765
 H         1.911709         2.266878        -0.616916
