19
Iteration:    73
 C         0.099124         0.351922         0.147810
 C         1.550756         0.029395         0.019815
 C         2.140347        -0.589351         1.279506
 O         3.257585        -1.434418         1.083061
 C         4.530259        -0.734928         1.208182
 C         4.682418         0.504082         0.355091
 C         3.736386         1.203664        -0.411180
 C         2.292824         0.964854        -0.725297
 O         1.985111        -0.450190        -1.321259
 H        -0.040027         1.331269         0.804911
 H        -0.418983         0.523790        -0.777806
 H        -0.508378        -0.464235         0.742014
 H         2.385898         0.128030         2.038508
 H         1.364027        -1.309213         1.615253
 H         4.691073        -0.526974         2.292126
 H         5.389961        -1.514308         0.890371
 H         5.697833         0.950239         0.260412
 H         4.278423         1.855314        -1.237417
 H         1.832513         1.888137        -1.260012
