19
Iteration:  3528
 C         0.078762         0.374219         0.309732
 C         1.532806         0.135901         0.106020
 C         2.064272        -0.990950         1.092705
 O         3.366914        -1.380739         0.644228
 C         4.389519        -0.700186         1.310315
 C         4.719750         0.541328         0.482774
 C         3.931149         1.185332        -0.390898
 C         2.483563         0.934183        -0.697954
 O         1.796394        -0.276848        -1.252375
 H        -0.173815         1.388639        -0.182210
 H        -0.465708        -0.401329        -0.134158
 H        -0.152551         0.288215         1.416474
 H         2.096837        -0.560996         2.205463
 H         1.453452        -1.857449         1.084569
 H         3.967375        -0.395382         2.379752
 H         5.166699        -1.409775         1.650161
 H         5.550040         1.141122         0.657703
 H         4.358341         2.108830        -0.766495
 H         2.133424         1.933347        -1.107335
