19
Iteration:  4167
 C         0.026595         0.292211         0.221298
 C         1.513829        -0.034265         0.099346
 C         2.018627        -1.076358         1.047719
 O         3.324400        -1.403663         0.844524
 C         4.343654        -0.566073         1.406637
 C         4.738551         0.390011         0.268567
 C         3.905745         1.185094        -0.440020
 C         2.453076         1.050232        -0.507947
 O         1.989453        -0.041439        -1.301652
 H        -0.587944         0.312393        -0.683211
 H        -0.393052        -0.275835         1.010767
 H        -0.038265         1.383102         0.560499
 H         1.822017        -0.706791         2.121874
 H         1.450550        -1.958060         0.942288
 H         4.222908        -0.161315         2.386141
 H         5.190833        -1.245909         1.562402
 H         5.919352         0.530947         0.213168
 H         4.357049         1.942541        -1.031617
 H         1.981161         1.888958        -0.880252
