19
Iteration:  4431
 C        -0.048975         0.289451         0.204825
 C         1.501018         0.059151         0.040331
 C         2.036052        -1.059340         0.998600
 O         3.365394        -1.549185         0.836928
 C         4.353386        -0.729536         1.280172
 C         4.766204         0.434694         0.374505
 C         3.899155         1.202779        -0.321064
 C         2.445717         1.137944        -0.437980
 O         2.020807         0.028859        -1.326271
 H        -0.461529        -0.349340         0.929328
 H        -0.397896         1.275658         0.601639
 H        -0.524537         0.157955        -0.719049
 H         1.852740        -0.622280         2.011338
 H         1.353485        -2.005312         1.039129
 H         4.244547        -0.325388         2.253187
 H         5.205585        -1.330993         1.411752
 H         5.808315         0.745304         0.253962
 H         4.274686         2.038586        -0.976987
 H         1.987046         2.196325        -0.612692
