19
Iteration:   210charge 0 multiplicity 1
 C        -0.037591         0.280397         0.248589
 C         1.479826         0.096562         0.040912
 C         2.029776        -0.654468         1.255242
 O         3.237985        -1.385825         1.115279
 C         4.492887        -0.703773         1.129102
 C         4.741075         0.578013         0.319281
 C         3.868844         1.104991        -0.528239
 C         2.417534         0.880780        -0.803045
 O         2.058440        -0.365468        -1.203500
 H        -0.108921         0.842775         1.132938
 H        -0.517037         0.991568        -0.606807
 H        -0.492388        -0.660541         0.388148
 H         2.141889         0.120937         2.058514
 H         1.314637        -1.404660         1.578933
 H         4.673913        -0.469678         2.212216
 H         5.234145        -1.415568         0.848709
 H         5.733845         1.021090         0.498401
 H         4.366620         1.834511        -1.234882
 H         1.946597         1.638756        -1.361231
