19
Iteration:  3749
 C         0.084154         0.310144         0.326400
 C         1.519932         0.057283         0.031774
 C         2.087212        -0.947892         1.040425
 O         3.370932        -1.529699         0.917601
 C         4.416256        -0.677833         1.308611
 C         4.623092         0.438926         0.393466
 C         3.844890         1.204096        -0.388440
 C         2.371654         1.069602        -0.683984
 O         1.973450        -0.138496        -1.377393
 H        -0.419197         1.372526         0.077660
 H        -0.530953        -0.470663         0.061554
 H        -0.029411         0.452782         1.442471
 H         2.101373        -0.319600         2.060302
 H         1.374485        -1.722951         1.239898
 H         4.247455        -0.364499         2.323772
 H         5.443471        -1.358507         1.383881
 H         5.690586         0.935982         0.342353
 H         4.277300         2.149834        -0.802816
 H         1.915090         2.032578        -1.082224
