19
Iteration:  1910charge 0 multiplicity 1
 C         0.067125         0.447811         0.279370
 C         1.486403        -0.003912        -0.043466
 C         2.093651        -0.628668         1.184281
 O         3.349097        -1.409661         1.029534
 C         4.582082        -0.634073         1.329000
 C         4.647087         0.583181         0.555537
 C         3.835989         1.076478        -0.443639
 C         2.381670         0.834979        -0.891477
 O         1.828943        -0.454902        -1.374533
 H        -0.030309         1.389026         0.911924
 H        -0.396181         0.524477        -0.690377
 H        -0.500587        -0.392763         0.651472
 H         2.232204         0.112633         2.012749
 H         1.458780        -1.406123         1.698580
 H         4.870994        -0.415963         2.378713
 H         5.435115        -1.203007         0.931688
 H         5.601748         1.036907         0.552344
 H         4.476741         1.815719        -1.068495
 H         1.812627         1.724540        -1.455031
