19
Iteration:  1902
 C        -0.013238         0.386486         0.272993
 C         1.477484         0.065572        -0.025241
 C         2.122764        -0.660498         1.201173
 O         3.403142        -1.395363         1.006191
 C         4.511189        -0.625201         1.375736
 C         4.625144         0.571240         0.486878
 C         3.869926         1.053846        -0.470633
 C         2.408250         0.862102        -0.829051
 O         1.876888        -0.460906        -1.370035
 H         0.049656         1.400400         0.917008
 H        -0.507297         0.610598        -0.678557
 H        -0.593202        -0.245038         0.879459
 H         2.179365         0.181140         1.904345
 H         1.378481        -1.312588         1.514431
 H         4.679509        -0.513306         2.532041
 H         5.270942        -1.264890         0.787949
 H         5.564200         1.070605         0.453537
 H         4.319085         1.708364        -1.209499
 H         2.103564         1.683638        -1.381489
