19
Iteration:  4888charge 0 multiplicity 1
 C         0.158575         0.550287         0.448734
 C         1.553755        -0.011366         0.013218
 C         2.028028        -1.132407         0.957946
 O         3.379641        -1.499608         0.649667
 C         4.368405        -0.706451         1.328088
 C         4.625481         0.608435         0.696336
 C         3.924698         1.247496        -0.257236
 C         2.481127         0.960750        -0.755608
 O         1.823646        -0.200017        -1.452837
 H         0.075805         1.531218         1.037213
 H        -0.295376         0.493407        -0.634230
 H        -0.297561        -0.253589         1.049240
 H         1.950329        -0.861676         2.046922
 H         1.471485        -2.066971         0.871409
 H         3.885042        -0.478129         2.340641
 H         5.421785        -1.168993         1.470942
 H         5.556902         1.129049         1.050447
 H         4.211983         2.255796        -0.614481
 H         2.031104         1.882500        -0.925560
