19
Iteration:  4051
 O         0.156801         0.113820         1.048825
 C        -0.969115         0.460883         0.307544
 C        -2.318794         0.409954         0.933788
 C        -1.720319         1.760885         0.697744
 C        -1.792395         2.899140        -0.335410
 C        -2.057915         2.804000        -1.655728
 C        -2.276228         1.607066        -2.430000
 O        -2.109638         0.339147        -1.770345
 C        -0.793097         0.197780        -1.226097
 H         0.777933         0.766451         0.950140
 H        -3.204697         0.149703         0.320498
 H        -2.298778         0.074045         1.987097
 H        -1.349928         2.071699         1.695431
 H        -1.754996         3.954506        -0.066682
 H        -2.210401         3.754617        -2.368848
 H        -3.334313         1.460958        -2.660067
 H        -1.772568         1.437914        -3.391962
 H        -0.204265        -0.748565        -1.472318
 H        -0.084230         1.069979        -1.718446
