19
Iteration:  3277
 O        -0.011205        -0.017581         1.020411
 C        -0.963192         0.497530         0.229281
 C        -2.298237         0.598130         0.858208
 C        -1.483558         1.884796         0.638900
 C        -1.969546         2.966410        -0.191475
 C        -2.054685         2.801754        -1.502765
 C        -2.423131         1.463884        -2.360747
 O        -1.930664         0.208097        -1.921741
 C        -0.718257         0.270743        -1.194746
 H         0.808322         0.611750         0.896686
 H        -3.267336         0.582820         0.288680
 H        -2.197171         0.253170         1.877630
 H        -0.979604         2.097298         1.640545
 H        -1.987161         3.913859         0.384962
 H        -2.170778         3.567094        -2.393979
 H        -3.450445         1.354179        -2.336580
 H        -2.026820         1.623188        -3.385955
 H        -0.497647        -0.785248        -1.265458
 H        -0.047329         0.845529        -1.779772
