19
Iteration:  1307
 O         0.060409        -0.100488         1.090815
 C        -0.947658         0.614697         0.261857
 C        -2.274244         0.501936         0.912614
 C        -1.502464         1.926322         0.741091
 C        -1.820251         2.857496        -0.368928
 C        -2.198962         2.681730        -1.628746
 C        -2.419919         1.534103        -2.416608
 O        -2.008978         0.336359        -1.859890
 C        -0.782360         0.309749        -1.188048
 H         0.779516         0.479718         1.232972
 H        -3.163464         0.379960         0.302944
 H        -2.196137         0.151064         1.914108
 H        -0.947483         2.269002         1.640928
 H        -1.646481         3.929509        -0.127991
 H        -2.362880         3.559647        -2.163455
 H        -3.526178         1.449556        -2.717873
 H        -1.847967         1.521651        -3.392681
 H        -0.362260        -0.661592        -1.260429
 H        -0.016207         0.946971        -1.653713
