19
Iteration:  2356charge 0 multiplicity 1
 O         0.227795         0.136770         0.929149
 C        -0.996188         0.469552         0.301686
 C        -2.216942         0.664850         1.263784
 C        -1.471924         1.843297         0.570198
 C        -2.168210         2.825371        -0.231088
 C        -2.304217         2.780774        -1.549333
 C        -1.878782         1.679494        -2.519487
 O        -2.074037         0.361482        -2.042912
 C        -1.033737        -0.167344        -1.128321
 H         0.823512         0.822352         0.708424
 H        -3.266416         0.588924         0.635288
 H        -2.266689         0.482216         2.391232
 H        -0.662303         2.293027         1.271989
 H        -2.624009         3.663771         0.491432
 H        -2.889482         3.572729        -2.088128
 H        -2.589949         1.680786        -3.360478
 H        -0.765997         1.773471        -2.859196
 H        -1.122977        -1.264611        -1.170869
 H        -0.070205         0.180693        -1.470955
