19
Iteration:  4060charge 0 multiplicity 1
 O         0.184005         0.038080         1.090485
 C        -0.946371         0.478079         0.294975
 C        -2.347802         0.463117         0.873038
 C        -1.674640         1.831843         0.695827
 C        -1.820186         2.913929        -0.304817
 C        -2.073479         2.800130        -1.646546
 C        -2.328320         1.519665        -2.447104
 O        -2.072204         0.328255        -1.782074
 C        -0.781759         0.235689        -1.249927
 H         0.763940         0.749839         1.040542
 H        -3.168204        -0.057974         0.340174
 H        -2.306445         0.223849         1.952177
 H        -1.413960         2.239182         1.662777
 H        -1.964940         3.825594         0.143940
 H        -2.138902         3.773496        -2.173141
 H        -3.399729         1.644828        -2.622107
 H        -1.794707         1.609381        -3.519022
 H        -0.504638        -0.757591        -1.404922
 H        -0.002079         0.891501        -1.710353
