19
Iteration:   429charge 0 multiplicity 1
 O         0.064897        -0.119488         1.094870
 C        -0.791997         0.624014         0.220439
 C        -2.167195         0.617984         0.909066
 C        -1.411838         1.922358         0.645467
 C        -2.063823         2.847915        -0.289403
 C        -2.468963         2.725622        -1.523391
 C        -2.161072         1.630490        -2.508998
 O        -2.066437         0.346090        -1.866028
 C        -0.792848         0.064255        -1.200467
 H         0.478280         0.478701         1.675018
 H        -3.181081         0.590716         0.481675
 H        -2.098768         0.154911         1.927685
 H        -0.947323         2.416588         1.468765
 H        -2.254277         3.855406         0.102512
 H        -2.897876         3.600729        -1.892089
 H        -2.852706         1.648256        -3.361905
 H        -1.178010         1.937209        -3.074963
 H        -0.648476        -0.993521        -1.075064
 H         0.081441         0.404896        -1.722629
