19
Iteration:  3132
 O         0.190686         0.136630         0.960477
 C        -1.006285         0.465448         0.232028
 C        -2.236525         0.684836         1.144242
 C        -1.374779         1.866200         0.672365
 C        -2.108806         2.842200        -0.226335
 C        -2.471470         2.796601        -1.492141
 C        -1.919854         1.680260        -2.448925
 O        -1.959691         0.334285        -2.087463
 C        -1.124528        -0.166150        -1.116678
 H         0.889975         0.440236         0.380608
 H        -3.224900         0.441069         0.683086
 H        -2.065970         0.368812         2.151321
 H        -0.575780         2.313580         1.307736
 H        -2.377263         3.841008         0.151791
 H        -2.823220         3.654540        -1.934375
 H        -2.307279         1.695151        -3.387698
 H        -0.782905         1.899465        -2.593046
 H        -1.264707        -1.288023        -1.154681
 H        -0.075992        -0.013195        -1.526705
