19
Iteration:  4951
 O         0.059242        -0.088023         1.198622
 C        -0.948308         0.451795         0.236083
 C        -2.192964         0.656725         1.035212
 C        -1.315370         1.902770         0.576826
 C        -2.099706         2.865434        -0.274464
 C        -2.481200         2.779784        -1.550919
 C        -2.125922         1.637824        -2.503176
 O        -2.003697         0.412414        -1.932203
 C        -0.804578         0.033083        -1.289769
 H         0.909170         0.360208         1.080870
 H        -3.163140         0.648657         0.479919
 H        -2.171218         0.341956         2.123922
 H        -0.613232         2.274450         1.417152
 H        -2.555231         3.688222         0.271427
 H        -2.971953         3.599532        -1.923373
 H        -2.916944         1.580233        -3.288822
 H        -1.083626         1.987780        -2.877805
 H        -0.718806        -1.074747        -1.448968
 H         0.194566         0.389201        -1.628664
