19
Iteration:  4507
 O         0.036045        -0.129553         0.992178
 C        -0.990613         0.472778         0.316520
 C        -2.244936         0.646608         1.047065
 C        -1.432791         1.921462         0.690315
 C        -2.019147         2.960817        -0.311762
 C        -2.334077         2.731147        -1.558970
 C        -2.207762         1.589367        -2.461992
 O        -1.919484         0.290160        -1.940924
 C        -0.768070         0.167844        -1.185112
 H         0.717497         0.479396         1.078727
 H        -3.141977         0.667084         0.477650
 H        -2.327131         0.309014         2.042280
 H        -0.934494         2.428618         1.496392
 H        -2.113035         3.934224        -0.116327
 H        -2.712564         3.580398        -2.069981
 H        -3.269375         1.458724        -2.867019
 H        -1.688087         1.866995        -3.445395
 H        -0.428293        -0.893458        -1.163326
 H         0.188228         0.626648        -1.461512
