19
Iteration:  3069
 O         0.254728        -0.017139         0.901974
 C        -0.956033         0.490530         0.352687
 C        -2.164397         0.644591         1.246806
 C        -1.448485         1.896817         0.579038
 C        -2.211647         2.789614        -0.356087
 C        -2.454041         2.804226        -1.664168
 C        -1.784899         1.780636        -2.475171
 O        -2.064059         0.441954        -1.950064
 C        -1.109200        -0.114573        -1.075021
 H         1.074493         0.011732         0.445131
 H        -3.001707         0.221525         0.727307
 H        -2.225226         0.591508         2.277866
 H        -0.720668         2.325478         1.345930
 H        -2.672205         3.500417         0.224824
 H        -3.268822         3.361518        -1.987980
 H        -2.211218         1.864682        -3.479175
 H        -0.706931         1.905079        -2.426754
 H        -1.470023        -1.096608        -0.924627
 H        -0.118644        -0.060015        -1.512300
