19
Iteration:  1443
 O         0.140361        -0.054235         0.955811
 C        -0.954072         0.538068         0.280479
 C        -2.227503         0.716431         1.127416
 C        -1.411940         1.938338         0.609926
 C        -2.025996         2.826627        -0.264835
 C        -2.506545         2.668422        -1.510417
 C        -1.962412         1.682966        -2.519801
 O        -1.972769         0.367760        -1.994416
 C        -1.021131        -0.054418        -1.098917
 H         0.951606         0.317653         0.547925
 H        -3.171427         0.635369         0.575048
 H        -2.148277         0.502711         2.178786
 H        -0.843328         2.445260         1.416906
 H        -2.359201         3.804983         0.134904
 H        -3.046762         3.622104        -1.817312
 H        -2.587350         1.808269        -3.417107
 H        -0.877604         1.926976        -2.807444
 H        -1.123354        -1.172278        -1.027723
 H         0.023413         0.207783        -1.432198
