19
Iteration:  4479charge 0 multiplicity 1
 O         0.180159        -0.009073         1.147947
 C        -0.894152         0.499829         0.313479
 C        -2.287866         0.513293         0.935623
 C        -1.565064         1.860028         0.661095
 C        -1.911506         2.899409        -0.290056
 C        -2.162942         2.813161        -1.601821
 C        -2.331756         1.635033        -2.527200
 O        -2.067399         0.259042        -1.956780
 C        -0.821683         0.177739        -1.175513
 H         0.797229         0.683380         1.174902
 H        -3.241646         0.249278         0.397030
 H        -2.216314         0.143749         2.007360
 H        -1.233357         2.279953         1.623215
 H        -2.080835         4.048106         0.052555
 H        -2.264413         3.790688        -2.101153
 H        -3.410848         1.513169        -2.681026
 H        -1.720630         1.753834        -3.408561
 H        -0.657639        -0.944862        -1.088591
 H         0.112275         0.612602        -1.598132
