19
Iteration:    37
 O         0.173753        -0.095791         1.116797
 C        -0.839716         0.458253         0.275480
 C        -2.244259         0.629507         0.771656
 C        -1.418938         1.863269         0.615417
 C        -2.097729         2.868546        -0.244671
 C        -2.585933         2.846917        -1.532778
 C        -2.261008         1.677609        -2.394989
 O        -1.924299         0.401968        -1.848690
 C        -0.721422         0.084418        -1.171561
 H         0.336293        -0.946198         0.730084
 H        -2.980206         0.495105        -0.057716
 H        -2.429442         0.294422         1.794688
 H        -0.906991         2.274998         1.537964
 H        -1.971789         3.939931         0.104630
 H        -2.796083         3.879585        -2.062335
 H        -3.102859         1.406740        -3.118358
 H        -1.340811         2.057395        -3.000526
 H        -0.782328        -1.049025        -1.175130
 H         0.200404         0.526892        -1.632123
