19
Iteration:  2694charge 0 multiplicity 1
 O         0.176002         0.035241         0.933561
 C        -0.914885         0.552549         0.217629
 C        -2.107117         0.657395         1.083425
 C        -1.390564         1.959337         0.629503
 C        -2.268493         2.851394        -0.250408
 C        -2.491590         2.724110        -1.604708
 C        -1.689507         1.698347        -2.405656
 O        -2.158335         0.410793        -1.954680
 C        -1.050769        -0.205488        -1.060398
 H         0.952847         0.405490         0.563433
 H        -3.021230         0.523786         0.611977
 H        -2.040407         0.348083         2.069204
 H        -0.749172         2.422957         1.274746
 H        -2.995658         3.516074         0.171742
 H        -2.992987         3.522642        -2.137673
 H        -2.103815         1.824585        -3.431765
 H        -0.657738         1.862373        -2.438538
 H        -1.399684        -1.167484        -0.764498
 H        -0.138184        -0.324196        -1.672047
