19
Iteration:  2316charge 0 multiplicity 1
 O         0.190506         0.062162         0.968558
 C        -0.849912         0.523167         0.212046
 C        -2.114485         0.585752         1.036288
 C        -1.494255         1.958324         0.558108
 C        -2.257145         2.956495        -0.252161
 C        -2.397976         2.796205        -1.578553
 C        -1.741469         1.639399        -2.321256
 O        -2.149220         0.396802        -1.962354
 C        -1.101155        -0.190049        -1.073481
 H         1.070632         0.367116         0.530835
 H        -2.981740         0.308771         0.553212
 H        -2.010214         0.440474         2.078977
 H        -1.002866         2.405027         1.385470
 H        -2.696234         3.853756         0.202182
 H        -3.283971         3.251241        -2.086062
 H        -2.081143         1.750911        -3.382167
 H        -0.683956         1.708644        -2.500331
 H        -1.186013        -1.276837        -0.905849
 H        -0.147434        -0.457150        -1.725019
