19
Iteration:   717charge 0 multiplicity 1
 O         0.307072         0.032163         0.782398
 C        -0.996861         0.513433         0.305362
 C        -2.198703         0.635057         1.268360
 C        -1.567507         1.936530         0.720699
 C        -2.123067         2.930228        -0.285477
 C        -2.355454         2.791225        -1.574364
 C        -1.862384         1.643606        -2.484101
 O        -2.095650         0.295367        -2.036685
 C        -1.096489        -0.125271        -1.111086
 H         0.866450         0.759772         1.241436
 H        -3.076659         0.193357         0.795177
 H        -2.079891         0.357150         2.335334
 H        -1.029405         2.484949         1.478717
 H        -2.429603         3.860283         0.125716
 H        -2.709884         3.691882        -2.070716
 H        -2.306734         1.597187        -3.534132
 H        -0.730602         1.884206        -2.563443
 H        -1.212543        -1.263533        -1.117793
 H        -0.086345         0.211489        -1.483322
