19
Iteration:  2123
 O         0.151823        -0.067791         1.006302
 C        -0.981243         0.464085         0.313808
 C        -2.328007         0.612594         0.961576
 C        -1.555179         1.906136         0.758188
 C        -1.876225         3.014790        -0.325933
 C        -2.190768         2.801652        -1.627208
 C        -2.436975         1.509775        -2.388622
 O        -1.917653         0.208683        -1.979886
 C        -0.786267         0.196406        -1.139350
 H         0.744033         0.688279         1.147486
 H        -3.284023         0.451481         0.492002
 H        -2.319192         0.256621         1.939608
 H        -1.187937         2.249720         1.731244
 H        -1.775278         4.060457        -0.047526
 H        -2.037538         3.682818        -2.347065
 H        -3.446955         1.423593        -2.535772
 H        -1.893500         1.736832        -3.374308
 H        -0.411513        -0.863868        -1.190289
 H        -0.090169         0.900983        -1.644977
