19
Iteration:   972
 O         0.301964         0.174325         1.019467
 C        -0.941560         0.391655         0.292924
 C        -2.357895         0.491194         0.936451
 C        -1.627986         1.749623         0.636825
 C        -1.861488         2.861197        -0.240560
 C        -2.020375         2.832148        -1.605361
 C        -2.289331         1.557497        -2.482361
 O        -2.176794         0.306282        -1.843471
 C        -0.864074         0.159725        -1.156025
 H         0.845331         1.012937         0.981895
 H        -3.207701         0.235368         0.317261
 H        -2.582650         0.475637         1.975744
 H        -1.251254         2.178971         1.611848
 H        -1.967331         3.884221         0.267797
 H        -2.283847         3.760309        -2.152763
 H        -3.308664         1.706080        -2.855813
 H        -1.708641         1.579049        -3.411919
 H        -0.627677        -0.940790        -1.286089
 H        -0.166808         0.812701        -1.619423
