19
Iteration:   439
 O         0.109666        -0.132924         1.133596
 C        -0.845944         0.552954         0.277147
 C        -2.205901         0.678041         0.947762
 C        -1.313961         1.939793         0.646385
 C        -2.026193         2.857762        -0.268677
 C        -2.481459         2.705960        -1.566819
 C        -2.170334         1.651659        -2.512409
 O        -2.026636         0.349543        -1.974259
 C        -0.825476         0.098396        -1.197595
 H         0.334044         0.463327         1.815050
 H        -3.053570         0.426293         0.297898
 H        -2.151361         0.357639         2.017230
 H        -0.971416         2.312526         1.577711
 H        -2.516966         3.652443         0.287562
 H        -3.058624         3.480659        -1.979769
 H        -3.104571         1.422028        -2.988508
 H        -1.385199         1.873989        -3.257971
 H        -0.747584        -0.974390        -1.299380
 H        -0.048547         0.619067        -1.708385
