19
Iteration:  4692charge 0 multiplicity 1
 O         0.167712         0.055581         0.976257
 C        -0.946509         0.524617         0.259943
 C        -2.174063         0.531041         1.080764
 C        -1.507378         1.924035         0.666261
 C        -2.110798         2.849478        -0.268135
 C        -2.334662         2.726638        -1.592950
 C        -1.915178         1.700179        -2.486026
 O        -2.078814         0.417282        -1.908568
 C        -1.017333        -0.086454        -1.126020
 H         0.908388         0.511555         0.515538
 H        -3.127426         0.356112         0.517908
 H        -2.132065         0.213519         2.169113
 H        -0.979559         2.323100         1.562081
 H        -2.552006         3.678752         0.252652
 H        -2.792713         3.561789        -2.079058
 H        -2.585642         1.740105        -3.391362
 H        -0.793430         1.912654        -2.828442
 H        -1.041979        -1.112279        -1.280963
 H        -0.072132         0.134753        -1.700311
