19
Iteration:  4960
 O         0.105375        -0.074956         1.247187
 C        -0.930056         0.476894         0.248799
 C        -2.182512         0.644157         1.017022
 C        -1.385980         1.863657         0.588924
 C        -2.130929         2.808205        -0.293387
 C        -2.433135         2.856023        -1.620227
 C        -2.090311         1.727426        -2.401961
 O        -1.997522         0.383481        -1.936364
 C        -0.856102        -0.020036        -1.311335
 H         0.967453         0.261100         0.957724
 H        -3.164520         0.770996         0.614893
 H        -2.085791         0.308345         2.016455
 H        -0.652091         2.404421         1.231363
 H        -2.509525         3.638412         0.372519
 H        -3.175892         3.492709        -2.044519
 H        -2.926071         1.638337        -3.261213
 H        -1.157965         1.920462        -3.134465
 H        -0.797616        -1.214083        -1.374438
 H         0.069554         0.482128        -1.854167
