19
Iteration:  3265
 O         0.066070         0.031202         1.067636
 C        -0.995525         0.549363         0.213397
 C        -2.320882         0.571595         0.886657
 C        -1.496183         1.869786         0.738466
 C        -1.919456         2.947810        -0.219884
 C        -2.091476         2.767138        -1.569312
 C        -2.412527         1.548195        -2.382686
 O        -1.972164         0.238740        -1.940577
 C        -0.724461         0.116470        -1.244613
 H         0.843851         0.517844         0.904760
 H        -3.155225         0.304324         0.232656
 H        -2.438677         0.066085         1.825478
 H        -1.013129         2.302536         1.709883
 H        -1.975211         4.001197         0.041853
 H        -2.234328         3.806086        -1.955967
 H        -3.469553         1.465222        -2.410273
 H        -2.141938         1.714447        -3.441213
 H        -0.236097        -0.861000        -1.302395
 H         0.031129         0.831333        -1.477680
