19
Iteration:  3866charge 0 multiplicity 1
 O         0.259757         0.134721         0.908124
 C        -1.041005         0.542732         0.277652
 C        -2.199974         0.580338         1.266145
 C        -1.472865         1.909712         0.691162
 C        -2.252953         2.793735        -0.277254
 C        -2.338201         2.754089        -1.587219
 C        -1.661661         1.749091        -2.521603
 O        -2.120916         0.342157        -2.007094
 C        -1.135743        -0.142151        -1.144596
 H         0.871665         0.622649         0.235970
 H        -3.231568         0.400385         0.966297
 H        -1.814055         0.198457         2.234687
 H        -0.895662         2.427316         1.382854
 H        -2.680717         3.708678         0.209657
 H        -2.894913         3.554823        -2.086560
 H        -1.914245         1.988408        -3.520240
 H        -0.619347         1.723826        -2.355647
 H        -1.444002        -1.253204        -1.015706
 H        -0.188803        -0.329644        -1.699817
