19
Iteration:   600charge 0 multiplicity 1
 O         0.236785         0.207188         0.895136
 C        -0.990179         0.539612         0.272913
 C        -2.301673         0.543403         1.048678
 C        -1.495080         1.879862         0.753021
 C        -2.086804         2.778359        -0.251374
 C        -2.095243         2.747660        -1.583485
 C        -2.066428         1.616159        -2.492729
 O        -2.125039         0.291121        -1.891249
 C        -0.889362         0.078961        -1.185461
 H         0.165648        -0.739431         1.256822
 H        -3.161887         0.447469         0.371399
 H        -2.394043         0.146117         2.065973
 H        -0.930557         2.291307         1.534772
 H        -2.431454         3.677645         0.142251
 H        -2.611320         3.587115        -1.978791
 H        -3.013460         1.920652        -2.995151
 H        -1.286664         1.730585        -3.249782
 H        -0.706442        -0.972139        -0.979239
 H        -0.128057         0.654281        -1.748715
