19
Iteration:  1884charge 0 multiplicity 1
 O         0.159576         0.018027         0.953485
 C        -0.946500         0.458633         0.276896
 C        -2.160203         0.687298         1.132415
 C        -1.439719         1.957076         0.620407
 C        -2.199202         2.864080        -0.199452
 C        -2.399891         2.879712        -1.556591
 C        -1.870658         1.692894        -2.522587
 O        -2.036132         0.329015        -2.007413
 C        -1.024077        -0.158004        -1.105815
 H         0.973783         0.350658         0.578504
 H        -3.119336         0.405595         0.674412
 H        -1.939600         0.364026         2.120952
 H        -0.649901         2.409342         1.265514
 H        -2.736784         3.647533         0.372364
 H        -3.213194         3.513589        -2.118784
 H        -2.584468         1.538969        -3.445123
 H        -0.737010         1.777813        -2.691404
 H        -1.360376        -1.119587        -0.834060
 H         0.059048        -0.098725        -1.582640
