19
Iteration:  2371
 O         0.203429         0.050289         0.921362
 C        -1.012292         0.496779         0.264826
 C        -2.207652         0.654086         1.223009
 C        -1.523762         1.889132         0.727558
 C        -2.162076         2.861612        -0.258253
 C        -2.236600         2.821896        -1.589773
 C        -1.947303         1.660617        -2.552166
 O        -2.031414         0.270198        -2.007715
 C        -0.996420        -0.044504        -1.138373
 H         1.019340         0.629084         0.737644
 H        -3.091138         0.219018         1.023550
 H        -1.834677         0.456496         2.197987
 H        -1.037672         2.437259         1.473819
 H        -2.798881         3.641974         0.137393
 H        -2.794274         3.619622        -2.085479
 H        -2.707258         1.818866        -3.331577
 H        -1.006738         1.854216        -3.066365
 H        -1.251675        -1.092928        -0.885201
 H        -0.029471         0.128448        -1.723346
