19
Iteration:  4212
 O         0.259751         0.291575         0.911689
 C        -0.973350         0.459871         0.273756
 C        -2.222029         0.475192         1.054505
 C        -1.581387         1.770458         0.613474
 C        -2.175732         2.868606        -0.290766
 C        -2.102237         2.835309        -1.611486
 C        -1.857292         1.618701        -2.428624
 O        -2.184083         0.397946        -1.852674
 C        -1.084499        -0.134269        -1.097245
 H         0.812797         0.756401         0.337271
 H        -3.165544         0.074016         0.638598
 H        -2.155908         0.327182         2.154392
 H        -1.009704         2.149477         1.529198
 H        -2.443673         3.771627         0.234718
 H        -2.669833         3.636127        -2.164460
 H        -2.367869         1.851446        -3.381073
 H        -0.685589         1.782198        -2.604878
 H        -1.333841        -1.188643        -0.906041
 H        -0.051350         0.006021        -1.721906
