19
Iteration:  2749charge 0 multiplicity 1
 O         0.212856         0.115331         0.950169
 C        -1.089202         0.455489         0.279237
 C        -2.204920         0.588369         1.225834
 C        -1.473247         1.867378         0.654248
 C        -2.069467         2.843431        -0.280594
 C        -2.391196         2.779514        -1.563990
 C        -1.891294         1.601126        -2.545832
 O        -2.056388         0.382531        -2.021505
 C        -1.037366        -0.055209        -1.117264
 H         0.766441         0.862631         0.705160
 H        -3.149293         0.318054         0.880955
 H        -2.020152         0.388752         2.271165
 H        -0.779699         2.260857         1.292391
 H        -2.020054         3.860698         0.110452
 H        -3.057162         3.609493        -1.880014
 H        -2.377999         1.631014        -3.570498
 H        -0.734926         1.909756        -2.695222
 H        -1.111588        -1.131346        -1.043317
 H         0.039920         0.279094        -1.530879
