19
Iteration:  4423charge 0 multiplicity 1
 O         0.220327         0.134077         0.995660
 C        -0.960151         0.485313         0.323840
 C        -2.327987         0.383891         0.974741
 C        -1.699707         1.803395         0.675017
 C        -1.944762         2.908921        -0.315734
 C        -1.977282         2.834757        -1.660404
 C        -2.245313         1.588516        -2.477383
 O        -2.096646         0.334043        -1.779103
 C        -0.892189         0.167213        -1.137660
 H         0.994156         0.681328         0.591196
 H        -2.962485        -0.139121         0.256824
 H        -2.474650         0.047403         1.995158
 H        -1.326991         2.163282         1.582072
 H        -1.938245         3.989962         0.164432
 H        -1.988098         3.743145        -2.123993
 H        -3.211748         1.429463        -2.969614
 H        -1.511900         1.532429        -3.282061
 H        -0.683287        -0.938805        -1.448123
 H        -0.123274         0.856817        -1.587437
