19
Iteration:  3142
 O         0.199630         0.138313         0.963925
 C        -0.998704         0.473192         0.350207
 C        -2.197079         0.617724         1.169103
 C        -1.471347         1.859503         0.639015
 C        -2.016428         2.892336        -0.252586
 C        -2.427926         2.699710        -1.547099
 C        -1.953431         1.702170        -2.431485
 O        -2.003315         0.359539        -2.101388
 C        -1.074512        -0.113467        -1.164437
 H         0.936929         0.408421         0.351553
 H        -3.088337         0.469061         0.488125
 H        -2.325834         0.298221         2.200087
 H        -0.788487         2.271514         1.382029
 H        -2.133274         3.859560         0.294959
 H        -2.939217         3.459342        -2.039827
 H        -2.532095         1.756141        -3.294542
 H        -0.892311         2.070970        -2.605595
 H        -1.441130        -1.149266        -0.966379
 H        -0.079001        -0.063381        -1.544162
