19
Iteration:  1766charge 0 multiplicity 1
 O         0.186690         0.059683         1.158241
 C        -0.851832         0.435118         0.352224
 C        -2.298556         0.467793         0.940939
 C        -1.598897         1.774576         0.638616
 C        -1.737904         2.803651        -0.350340
 C        -2.278274         2.816297        -1.613833
 C        -2.357884         1.605921        -2.530022
 O        -2.195562         0.338688        -1.849578
 C        -0.776427         0.237907        -1.184568
 H         0.942029         0.753118         1.054391
 H        -3.162951         0.191162         0.366302
 H        -2.525024         0.474039         1.981745
 H        -1.230966         2.246810         1.590401
 H        -1.461655         3.824683        -0.017132
 H        -2.188589         3.866156        -2.118473
 H        -3.319876         1.525838        -3.142288
 H        -1.450254         1.709008        -3.251392
 H        -0.316719        -0.794403        -1.585986
 H        -0.167479         1.042984        -1.619187
