19
Iteration:  2618charge 0 multiplicity 1
 O         0.196823         0.050271         0.939447
 C        -0.961767         0.560793         0.305450
 C        -2.175517         0.563930         1.119624
 C        -1.557080         1.969143         0.773836
 C        -2.073692         2.910680        -0.262012
 C        -2.233913         2.692993        -1.553443
 C        -1.996482         1.623726        -2.560394
 O        -2.093627         0.304627        -2.008473
 C        -1.026074        -0.013306        -1.122568
 H         0.998959         0.673081         0.812296
 H        -3.005172         0.183536         0.586763
 H        -2.098217         0.322856         2.118346
 H        -0.929526         2.434537         1.428978
 H        -2.669440         3.754460         0.061376
 H        -2.604773         3.553057        -2.056348
 H        -2.739828         1.726570        -3.380469
 H        -1.006377         1.832365        -3.039794
 H        -1.103489        -1.074439        -1.007392
 H        -0.015949         0.137069        -1.602365
