19
Iteration:  3351charge 0 multiplicity 1
 O         0.053115        -0.068814         1.165063
 C        -0.956683         0.424111         0.240232
 C        -2.203869         0.514627         0.941092
 C        -1.504776         1.893742         0.604751
 C        -1.921432         2.990229        -0.251255
 C        -2.295978         2.858467        -1.600829
 C        -2.318751         1.551118        -2.522974
 O        -2.004179         0.308521        -1.846174
 C        -0.707579         0.189034        -1.208292
 H         0.912101         0.329354         0.916458
 H        -3.178105         0.562666         0.443926
 H        -2.224379         0.387474         1.987115
 H        -0.919349         1.980973         1.579983
 H        -2.082489         3.999392         0.112863
 H        -2.714148         3.775244        -2.014862
 H        -3.399446         1.234294        -2.800642
 H        -1.641835         1.654573        -3.390631
 H        -0.466374        -0.857212        -1.520932
 H         0.025681         0.953876        -1.617967
