19
Iteration:  1533charge 0 multiplicity 1
 O         0.382885        -0.009124         0.880297
 C        -0.932399         0.510542         0.320858
 C        -2.217349         0.564057         1.211781
 C        -1.586337         1.869498         0.626894
 C        -2.259524         2.807658        -0.311854
 C        -2.289415         2.830619        -1.624437
 C        -1.764104         1.698461        -2.559993
 O        -2.168113         0.419503        -1.876861
 C        -1.133459        -0.075884        -1.091696
 H         1.139932         0.460757         0.398881
 H        -3.181606         0.499456         0.760321
 H        -2.294882         0.783031         2.278093
 H        -1.052118         2.514522         1.388091
 H        -2.538781         3.661783         0.317509
 H        -2.509954         3.721846        -2.117075
 H        -2.217540         1.527776        -3.460855
 H        -0.665409         1.812548        -2.757572
 H        -1.596597        -1.147625        -0.934300
 H        -0.144484         0.055785        -1.565476
