19
Iteration:  3643charge 0 multiplicity 1
 O         0.261629         0.060768         1.109959
 C        -0.993893         0.442618         0.380791
 C        -2.372493         0.486450         0.889421
 C        -1.604144         1.801537         0.715957
 C        -1.782899         2.906277        -0.313789
 C        -2.123077         2.830166        -1.599094
 C        -2.429693         1.560019        -2.534642
 O        -2.036733         0.265141        -1.909346
 C        -0.836259         0.244149        -1.170639
 H         0.929876         0.847689         1.015503
 H        -3.068157         0.169389         0.083603
 H        -2.543788         0.145862         1.905872
 H        -1.143777         2.223898         1.732919
 H        -1.548473         3.869625         0.272449
 H        -2.401680         3.708653        -2.265659
 H        -3.439826         1.539411        -2.833408
 H        -1.925980         1.687364        -3.603941
 H        -0.442383        -0.799199        -1.186920
 H        -0.116142         1.048364        -1.517123
