19
Iteration:  1467
 O         0.162311         0.054449         1.071629
 C        -0.943593         0.468673         0.279116
 C        -2.191134         0.726408         1.127971
 C        -1.310189         1.994209         0.639611
 C        -2.119585         2.937788        -0.185696
 C        -2.486350         2.795069        -1.487593
 C        -1.912512         1.695538        -2.433420
 O        -2.013425         0.236347        -2.198765
 C        -1.089333        -0.190219        -1.208816
 H         0.924016         0.202986         0.556285
 H        -3.082405         0.774641         0.552376
 H        -2.227853         0.510563         2.140907
 H        -0.496871         2.303030         1.349699
 H        -2.804731         3.699424         0.262067
 H        -3.341061         3.330270        -1.787355
 H        -2.426982         1.912913        -3.291535
 H        -0.760512         1.730687        -2.685973
 H        -1.293637        -1.313535        -1.024596
 H        -0.053371        -0.014439        -1.593679
