19
Iteration:  4157charge 0 multiplicity 1
 O         0.063353        -0.128528         1.084997
 C        -0.886867         0.603273         0.323313
 C        -2.166825         0.711450         1.065904
 C        -1.438141         1.951491         0.644525
 C        -2.041374         2.877169        -0.254653
 C        -2.438656         2.665908        -1.598834
 C        -2.037142         1.629913        -2.530620
 O        -2.022104         0.327235        -2.018024
 C        -0.891141         0.062420        -1.177017
 H         0.906926         0.207332         0.894067
 H        -3.045891         0.315917         0.524769
 H        -2.122926         0.447570         2.155491
 H        -0.995488         2.477846         1.526087
 H        -2.451374         3.682841         0.308152
 H        -2.957195         3.540065        -1.907050
 H        -2.987274         1.651413        -3.127411
 H        -1.285083         1.944469        -3.293527
 H        -0.787272        -1.000637        -0.898749
 H         0.052943         0.447811        -1.703817
