19
Iteration:  2370
 O         0.207310         0.055808         0.923305
 C        -1.011713         0.496048         0.261589
 C        -2.212338         0.661848         1.233862
 C        -1.519947         1.877590         0.708831
 C        -2.158510         2.863182        -0.252748
 C        -2.238405         2.816764        -1.584838
 C        -1.944145         1.667933        -2.551188
 O        -2.029463         0.268500        -2.005370
 C        -1.005023        -0.047447        -1.143419
 H         1.026130         0.657672         0.740356
 H        -3.136651         0.197417         0.982070
 H        -1.876149         0.462390         2.247664
 H        -0.981999         2.421608         1.461691
 H        -2.856283         3.657070         0.142396
 H        -2.809905         3.637578        -2.060536
 H        -2.687921         1.810603        -3.346771
 H        -0.978021         1.854780        -3.082938
 H        -1.227992        -1.107271        -0.904989
 H        -0.048848         0.103640        -1.712117
