19
Iteration:  4540charge 0 multiplicity 1
 O         0.002614        -0.082614         1.134839
 C        -0.888051         0.525161         0.301066
 C        -2.219636         0.736200         1.013862
 C        -1.343649         1.969179         0.733317
 C        -2.017547         2.855854        -0.252982
 C        -2.466932         2.716344        -1.528259
 C        -2.108040         1.647755        -2.490362
 O        -2.018482         0.199596        -2.034155
 C        -0.773074         0.121921        -1.271306
 H         0.917697        -0.013808         0.747591
 H        -3.006943         0.741844         0.286863
 H        -2.462028         0.514343         2.027744
 H        -0.909397         2.482513         1.570449
 H        -2.303631         3.729699         0.181637
 H        -3.202334         3.399174        -1.796449
 H        -2.913762         1.700559        -3.278238
 H        -1.089011         1.848289        -2.971451
 H        -0.681160        -1.008143        -1.239916
 H        -0.107040         0.773885        -1.975201
