19
Iteration:  1376
 O         0.189124         0.161060         1.063470
 C        -0.960433         0.488211         0.296963
 C        -2.305968         0.397010         0.928261
 C        -1.582339         1.859770         0.749866
 C        -1.818379         2.854866        -0.286975
 C        -2.165408         2.801862        -1.615052
 C        -2.287722         1.606523        -2.615917
 O        -2.111504         0.380411        -1.780478
 C        -0.891472         0.052278        -1.158348
 H         0.942110         0.698421         0.697606
 H        -3.114751         0.281646         0.203659
 H        -2.290176         0.045703         2.003853
 H        -1.021740         2.236991         1.571439
 H        -1.648477         3.800663         0.160057
 H        -2.263176         3.867269        -2.063072
 H        -3.268113         1.337342        -3.029745
 H        -1.536827         1.872140        -3.493531
 H        -0.725890        -1.037492        -1.220540
 H         0.006620         0.427374        -1.709390
