19
Iteration:  4170
 O         0.122697        -0.059507         1.043175
 C        -0.918911         0.542114         0.290604
 C        -2.152448         0.595754         1.069655
 C        -1.454263         1.960726         0.680324
 C        -2.098043         2.858688        -0.299347
 C        -2.366267         2.787194        -1.589980
 C        -2.068234         1.651976        -2.542558
 O        -2.008194         0.345705        -1.969156
 C        -0.964024        -0.001410        -1.109147
 H         1.005699         0.443527         0.954405
 H        -3.111010         0.441735         0.556868
 H        -2.042425         0.311093         2.129362
 H        -0.956687         2.493646         1.556319
 H        -2.519645         3.855662         0.082952
 H        -2.937634         3.585145        -2.181154
 H        -2.731709         1.483442        -3.426361
 H        -1.077541         1.776330        -2.892122
 H        -1.020096        -1.029512        -1.163609
 H         0.009919         0.234825        -1.571406
