19
Iteration:  3980
 O         0.136818         0.036130         0.976495
 C        -0.955016         0.547003         0.254597
 C        -2.256855         0.524900         1.006559
 C        -1.522907         1.848585         0.590764
 C        -2.068467         2.953431        -0.236466
 C        -2.276643         2.790974        -1.558802
 C        -2.035964         1.618329        -2.459694
 O        -2.047180         0.356437        -1.872071
 C        -0.900552        -0.028570        -1.151545
 H         0.887708         0.557577         0.842368
 H        -3.246900         0.445005         0.617769
 H        -2.088513         0.343282         2.051379
 H        -1.073157         2.127312         1.587123
 H        -2.346949         3.961719         0.309524
 H        -2.568189         3.597538        -2.158120
 H        -2.926370         1.561247        -3.143699
 H        -1.066433         1.682238        -3.136936
 H        -0.758814        -1.085980        -1.211438
 H         0.132220         0.390438        -1.550263
