19
Iteration:   948charge 0 multiplicity 1
 O         0.274056         0.105734         1.069329
 C        -0.914461         0.465966         0.362415
 C        -2.324640         0.361814         0.931632
 C        -1.546098         1.830058         0.756659
 C        -1.790486         2.816633        -0.335583
 C        -2.083924         2.804311        -1.665416
 C        -2.376362         1.542681        -2.556597
 O        -2.188932         0.332160        -1.838413
 C        -0.911741         0.289292        -1.184174
 H         0.623835         0.807471         1.693755
 H        -3.055157         0.010123         0.218085
 H        -2.527749         0.121050         1.994678
 H        -1.278860         2.381062         1.699047
 H        -1.503460         3.826058        -0.009379
 H        -2.112412         3.769554        -2.265427
 H        -3.346400         1.620572        -2.967745
 H        -1.760027         1.602665        -3.472522
 H        -0.477897        -0.691892        -1.503769
 H        -0.364145         1.128893        -1.560582
