19
Iteration:  2384
 O         0.151507        -0.016340         0.927775
 C        -0.944951         0.613962         0.317922
 C        -2.106332         0.542323         1.183854
 C        -1.595707         1.991182         0.758539
 C        -2.180235         2.849922        -0.260918
 C        -2.241127         2.776673        -1.641182
 C        -1.988777         1.618265        -2.534328
 O        -2.056228         0.345061        -2.026118
 C        -0.991995        -0.025730        -1.110816
 H         0.846949         0.486104         0.543032
 H        -3.093650         0.397918         0.875036
 H        -1.870996         0.234910         2.168122
 H        -1.129176         2.467392         1.586032
 H        -2.296982         3.792290         0.151635
 H        -2.597450         3.675512        -2.121805
 H        -2.771131         1.496127        -3.315086
 H        -1.063812         1.678176        -3.066007
 H        -0.874228        -1.140894        -1.090494
 H         0.095423         0.172327        -1.493604
