19
Iteration:  3223
 O         0.195412         0.023902         1.106764
 C        -0.923322         0.514567         0.393522
 C        -2.275863         0.347852         0.954778
 C        -1.524252         1.868040         0.660738
 C        -1.872907         2.863658        -0.363641
 C        -2.281436         2.803733        -1.648916
 C        -2.239700         1.685464        -2.542915
 O        -2.126981         0.360017        -1.847393
 C        -0.859881         0.118730        -1.128604
 H         0.990028         0.651675         0.951974
 H        -3.069957         0.141246         0.202511
 H        -2.471303         0.206409         2.014644
 H        -1.079170         2.242200         1.637638
 H        -1.740365         3.874889         0.037094
 H        -2.478904         3.812176        -2.240822
 H        -3.184888         1.659069        -3.048851
 H        -1.567935         1.905765        -3.412377
 H        -0.491142        -0.879755        -1.297391
 H        -0.090364         0.730836        -1.660941
