19
Iteration:   666
 O         0.109234        -0.030399         1.091775
 C        -0.892685         0.475226         0.219834
 C        -2.153416         0.679364         1.049988
 C        -1.249393         1.968990         0.581838
 C        -2.233587         2.783163        -0.230671
 C        -2.510966         2.725334        -1.585201
 C        -1.954746         1.768453        -2.512709
 O        -2.002344         0.441487        -1.943964
 C        -0.948912        -0.136476        -1.128339
 H         0.961836         0.049888         0.604868
 H        -3.129960         0.810904         0.618495
 H        -2.130759         0.580194         2.154052
 H        -0.675586         2.513214         1.309069
 H        -2.688244         3.614198         0.281869
 H        -3.349326         3.294990        -1.893029
 H        -2.599973         1.627685        -3.415205
 H        -1.038084         2.027782        -3.003199
 H        -1.568870        -1.018754        -0.937467
 H         0.023448        -0.325756        -1.596603
