19
Iteration:  4123charge 0 multiplicity 1
 O        -0.039862        -0.065634         1.095453
 C        -0.996779         0.467505         0.256253
 C        -2.248480         0.740035         0.997089
 C        -1.325825         1.925554         0.629824
 C        -1.948825         2.887457        -0.278317
 C        -2.483783         2.734101        -1.491204
 C        -2.181619         1.587386        -2.419039
 O        -1.928463         0.245423        -2.000577
 C        -0.745695         0.182486        -1.178794
 H         0.814307         0.025352         0.730257
 H        -3.118724         0.638501         0.331435
 H        -2.301213         0.311979         2.005639
 H        -0.701426         2.345280         1.381389
 H        -2.134645         3.802026         0.155347
 H        -2.844780         3.437069        -2.087920
 H        -3.079536         1.253927        -2.944679
 H        -1.501293         1.860576        -3.136218
 H        -0.257692        -0.819939        -1.289382
 H        -0.027935         0.887271        -1.625483
