19
Iteration:  3354charge 0 multiplicity 1
 O         0.058901        -0.053872         1.140414
 C        -0.952549         0.447350         0.238808
 C        -2.204569         0.504408         0.926278
 C        -1.508821         1.884178         0.619108
 C        -1.967023         3.003831        -0.264632
 C        -2.266346         2.842769        -1.578388
 C        -2.290904         1.542627        -2.502016
 O        -1.988322         0.309174        -1.837824
 C        -0.748124         0.168819        -1.219676
 H         0.891710         0.314194         0.972742
 H        -3.247036         0.544823         0.551340
 H        -2.263032         0.345697         2.056578
 H        -0.863574         2.064074         1.472695
 H        -2.026071         4.047211         0.191043
 H        -2.707934         3.878463        -2.035279
 H        -3.287578         1.304542        -2.831191
 H        -1.643377         1.617196        -3.410820
 H        -0.491184        -0.859346        -1.494064
 H        -0.045038         0.842094        -1.718671
