19
Iteration:  2253charge 0 multiplicity 1
 O         0.146357         0.113123         1.023074
 C        -1.003896         0.495121         0.334932
 C        -2.152191         0.607663         1.297300
 C        -1.423812         1.855197         0.685624
 C        -2.091192         2.842723        -0.282778
 C        -2.387576         2.761418        -1.614433
 C        -1.912604         1.651375        -2.588318
 O        -2.106367         0.355953        -2.093782
 C        -1.024453        -0.080664        -1.145422
 H         0.988308         0.604259         0.695359
 H        -3.103098         0.471429         0.926037
 H        -1.921366         0.318122         2.301421
 H        -0.723572         2.238200         1.390552
 H        -2.422973         3.752972         0.170413
 H        -2.862026         3.685591        -2.049148
 H        -2.499322         1.862247        -3.579810
 H        -0.846645         1.918567        -2.973240
 H        -1.044619        -1.215000        -1.152786
 H        -0.078407         0.181131        -1.618791
