19
Iteration:  4021charge 0 multiplicity 1
 O         0.240036         0.186756         1.079476
 C        -0.922470         0.503659         0.342899
 C        -2.319856         0.379219         0.952137
 C        -1.661769         1.770803         0.748519
 C        -1.848165         2.810643        -0.292408
 C        -2.043111         2.744780        -1.626440
 C        -2.228173         1.617661        -2.573853
 O        -2.169562         0.381948        -1.874866
 C        -0.919236         0.188861        -1.168211
 H         0.981462         0.735418         0.658871
 H        -3.108717        -0.051403         0.345379
 H        -2.321038         0.174834         2.017929
 H        -1.493792         2.151746         1.792847
 H        -1.895383         3.943552         0.129197
 H        -1.899057         3.752634        -2.197711
 H        -3.267611         1.546409        -2.992182
 H        -1.566996         1.573871        -3.494186
 H        -0.810677        -0.985534        -1.168477
 H        -0.246701         0.791203        -1.726261
