19
Iteration:  4571
 O         0.056338        -0.000981         1.092657
 C        -0.892087         0.510509         0.234496
 C        -2.189415         0.594614         1.029752
 C        -1.412977         1.882982         0.560927
 C        -2.112551         2.878260        -0.253877
 C        -2.458726         2.844121        -1.565511
 C        -2.043761         1.675264        -2.494108
 O        -1.947899         0.363533        -1.921454
 C        -0.883063        -0.050315        -1.146684
 H         0.935618         0.291702         0.785445
 H        -3.092018         0.431820         0.490666
 H        -2.229094         0.383987         2.060317
 H        -0.851067         2.281485         1.379751
 H        -2.304982         3.755605         0.416912
 H        -3.052901         3.580492        -2.048628
 H        -2.870885         1.519121        -3.200429
 H        -1.137014         1.870965        -2.969120
 H        -1.059959        -1.071453        -1.035320
 H         0.024586         0.050472        -1.773608
