19
Iteration:  2765charge 0 multiplicity 1
 O         0.175594         0.113782         1.006586
 C        -0.974968         0.482368         0.319709
 C        -2.192650         0.590238         1.207245
 C        -1.528041         1.836673         0.651640
 C        -2.042594         2.832480        -0.303691
 C        -2.260285         2.788213        -1.582967
 C        -1.993159         1.699578        -2.576703
 O        -2.078669         0.324826        -1.970240
 C        -0.983740        -0.039865        -1.170721
 H         0.899960         0.524174         0.588359
 H        -3.256827         0.300724         0.833064
 H        -1.985073         0.403519         2.293042
 H        -1.044224         2.376621         1.574716
 H        -2.618957         3.663544         0.169692
 H        -2.615796         3.631502        -2.205004
 H        -2.809813         1.703929        -3.258012
 H        -1.095324         1.863942        -3.041439
 H        -1.026810        -1.159842        -1.228233
 H        -0.106371         0.315555        -1.618699
