19
Iteration:  3642charge 0 multiplicity 1
 O         0.266997         0.065927         1.116191
 C        -0.997009         0.440464         0.378614
 C        -2.372332         0.484288         0.886511
 C        -1.594491         1.807564         0.724389
 C        -1.782886         2.907298        -0.319435
 C        -2.126828         2.835002        -1.595985
 C        -2.424370         1.556564        -2.540206
 O        -2.036678         0.263016        -1.909322
 C        -0.852758         0.242760        -1.170059
 H         0.911576         0.839153         1.008348
 H        -3.052627         0.144595         0.085380
 H        -2.540810         0.087637         1.889762
 H        -1.136176         2.210425         1.717972
 H        -1.563593         3.874263         0.299831
 H        -2.376981         3.717600        -2.258193
 H        -3.436599         1.538488        -2.850157
 H        -1.925379         1.693892        -3.613728
 H        -0.477130        -0.785357        -1.197500
 H        -0.090772         1.039777        -1.527982
