19
Iteration:  3527
 O         0.078573         0.062077         0.974441
 C        -0.987052         0.506827         0.162679
 C        -2.082548         0.712783         1.189299
 C        -1.371058         1.889540         0.563373
 C        -2.241442         2.839337        -0.132001
 C        -2.440712         2.797175        -1.519514
 C        -1.779409         1.719537        -2.380054
 O        -2.021877         0.300575        -2.147880
 C        -1.109063        -0.160134        -1.117695
 H         0.968425         0.440060         0.554983
 H        -3.124292         0.562349         0.823247
 H        -1.733846         0.496138         2.195145
 H        -0.697170         2.434601         1.288326
 H        -2.790773         3.481316         0.509615
 H        -2.997395         3.628723        -2.078548
 H        -2.122364         1.744272        -3.531155
 H        -0.640179         1.814845        -2.461665
 H        -1.392139        -1.235155        -1.015236
 H        -0.063774         0.087324        -1.487564
