19
Iteration:  4299charge 0 multiplicity 1
 O         0.172274        -0.006537         1.002157
 C        -0.981147         0.563453         0.225444
 C        -2.182485         0.674482         1.179661
 C        -1.402059         1.875371         0.557489
 C        -2.225925         2.876636        -0.216282
 C        -2.443412         2.727626        -1.584645
 C        -1.813861         1.737194        -2.465273
 O        -2.034063         0.358680        -2.010915
 C        -1.045214        -0.123578        -1.122138
 H         0.972901         0.326828         0.566127
 H        -3.245749         0.492078         0.931658
 H        -1.970679         0.517175         2.238569
 H        -0.779314         2.415454         1.352555
 H        -2.629102         3.618277         0.357778
 H        -3.102120         3.562484        -2.066004
 H        -2.171623         1.680130        -3.501052
 H        -0.788904         1.861116        -2.732018
 H        -1.072800        -1.336461        -1.077644
 H        -0.113165         0.172978        -1.600960
