19
Iteration:  2103
 O         0.105267        -0.016343         0.961082
 C        -0.978707         0.616151         0.341679
 C        -2.407630         0.606294         0.907616
 C        -1.487132         1.907336         0.727571
 C        -1.707630         2.886371        -0.277257
 C        -2.223835         2.738791        -1.496964
 C        -2.386413         1.449461        -2.452296
 O        -1.950317         0.180761        -1.978508
 C        -0.814264         0.233428        -1.132934
 H         0.822211         0.688693         1.167118
 H        -3.085823         0.441491         0.069565
 H        -2.731138         0.455449         1.880090
 H        -1.108414         2.409948         1.588687
 H        -1.693584         3.899539         0.061098
 H        -2.816583         3.585963        -1.840224
 H        -3.442541         1.420918        -2.669372
 H        -1.738014         1.789581        -3.428007
 H        -0.316891        -0.720649        -1.139084
 H        -0.109950         1.048131        -1.597583
