19
Iteration:   570charge 0 multiplicity 1
 O         0.319159         0.119168         1.046578
 C        -0.892252         0.503890         0.352428
 C        -2.194018         0.346642         1.020526
 C        -1.696027         1.788148         0.629784
 C        -1.979694         2.905536        -0.367714
 C        -2.199319         2.845838        -1.667363
 C        -2.220419         1.681612        -2.574285
 O        -2.161095         0.381674        -1.837004
 C        -0.876085         0.095745        -1.107058
 H         0.093309        -0.210160         1.877024
 H        -2.928481        -0.265185         0.475512
 H        -2.217876         0.186089         2.118211
 H        -1.351704         2.282179         1.521873
 H        -1.649332         3.932999         0.021557
 H        -2.112413         3.789293        -2.149548
 H        -3.162623         1.810076        -3.061638
 H        -1.489592         1.847941        -3.476534
 H        -0.809878        -1.017086        -1.171588
 H        -0.019515         0.545088        -1.720450
