19
Iteration:  3694charge 0 multiplicity 1
 O         0.012429        -0.128297         1.186432
 C        -0.850667         0.589316         0.324432
 C        -2.268714         0.584830         0.802220
 C        -1.479428         1.962332         0.769294
 C        -1.849444         2.922014        -0.252219
 C        -2.230702         2.731817        -1.608133
 C        -2.427402         1.484848        -2.436773
 O        -2.008282         0.187582        -1.945427
 C        -0.690285         0.340428        -1.274722
 H         0.928671         0.135323         1.184547
 H        -3.004013         0.392878         0.011152
 H        -2.440478         0.149183         1.790798
 H        -1.274358         2.389898         1.702735
 H        -1.980263         4.016941         0.065637
 H        -2.472437         3.627409        -2.217488
 H        -3.581582         1.472669        -2.545171
 H        -2.061210         1.742207        -3.398675
 H        -0.240614        -0.593608        -1.465156
 H        -0.190765         1.236881        -1.643088
