19
Iteration:  3817
 O         0.305750         0.229089         0.894066
 C        -0.950081         0.424569         0.313366
 C        -2.239934         0.489592         1.147721
 C        -1.654797         1.751807         0.643801
 C        -2.189718         2.880875        -0.322227
 C        -2.216772         2.940571        -1.687157
 C        -1.844890         1.648376        -2.419390
 O        -2.145493         0.411760        -1.857947
 C        -1.048144        -0.204958        -1.095567
 H         0.842158         0.812274         0.413971
 H        -3.125167         0.237021         0.569091
 H        -2.190618         0.244368         2.207489
 H        -0.934082         2.274660         1.398727
 H        -2.340990         3.828190         0.215662
 H        -2.415181         3.911097        -2.251438
 H        -2.360190         1.728026        -3.441347
 H        -0.697876         1.742373        -2.554400
 H        -1.271367        -1.239558        -1.168605
 H        -0.158607        -0.040479        -1.707478
