19
Iteration:  1633charge 0 multiplicity 1
 O         0.090269        -0.170246         1.029024
 C        -0.886146         0.546921         0.274052
 C        -2.206486         0.599161         0.956394
 C        -1.512097         1.917767         0.669265
 C        -2.007488         2.886049        -0.361851
 C        -2.287224         2.820898        -1.626400
 C        -2.220301         1.579186        -2.446114
 O        -2.047326         0.324595        -1.794925
 C        -0.792930         0.159969        -1.169445
 H         0.815690         0.521037         1.189381
 H        -3.161023         0.534491         0.362333
 H        -2.115927         0.394719         2.036036
 H        -1.109421         2.407720         1.523751
 H        -2.158611         3.876754         0.067256
 H        -2.624167         3.739234        -2.161534
 H        -3.112282         1.376385        -2.961353
 H        -1.479531         1.670933        -3.231744
 H        -0.596520        -1.006047        -1.340034
 H        -0.008470         0.804287        -1.553144
