19
Iteration:  4909charge 0 multiplicity 1
 O         0.138391        -0.091794         0.958179
 C        -0.957318         0.539138         0.373079
 C        -2.315032         0.669253         0.992266
 C        -1.480488         1.922453         0.763188
 C        -2.012148         3.012120        -0.200428
 C        -2.297127         2.726263        -1.515657
 C        -2.198490         1.548824        -2.506776
 O        -1.999153         0.258316        -1.980741
 C        -0.810431         0.108605        -1.233559
 H         0.896529         0.378229         0.702472
 H        -3.109459         0.530270         0.179093
 H        -2.431257         0.192065         2.059469
 H        -1.040296         2.374158         1.744732
 H        -2.276482         3.928949         0.287687
 H        -2.466336         3.570022        -2.200352
 H        -2.992410         1.512512        -3.184941
 H        -1.347130         1.845852        -3.064809
 H        -0.477622        -0.896167        -1.190830
 H         0.052730         0.491348        -1.810498
