19
Iteration:   436charge 0 multiplicity 1
 O         0.092357        -0.137439         1.125676
 C        -0.806577         0.589435         0.251702
 C        -2.206066         0.656301         0.941121
 C        -1.340914         1.945667         0.639727
 C        -2.037048         2.846427        -0.284675
 C        -2.480028         2.697091        -1.547501
 C        -2.153536         1.657622        -2.502615
 O        -2.049335         0.352097        -1.947886
 C        -0.818873         0.081763        -1.192446
 H         0.365320         0.513223         1.810670
 H        -3.094625         0.468670         0.345209
 H        -2.083431         0.318931         1.964479
 H        -0.955177         2.290767         1.618093
 H        -2.457115         3.704212         0.207160
 H        -3.012461         3.579962        -1.964412
 H        -3.042447         1.439099        -3.119226
 H        -1.398251         1.890216        -3.206507
 H        -0.736544        -1.041487        -1.258636
 H         0.033523         0.623358        -1.684228
