19
Iteration:    77charge 0 multiplicity 1
 O         0.148825         0.066216         1.000330
 C        -1.009606         0.491094         0.273259
 C        -2.319933         0.612754         1.020632
 C        -1.374953         1.823689         0.737456
 C        -1.995280         2.842826        -0.124981
 C        -2.198342         2.781662        -1.509858
 C        -2.261966         1.583417        -2.490313
 O        -1.978219         0.202237        -2.107374
 C        -0.818551         0.303432        -1.235258
 H         0.045585        -0.843788         1.432824
 H        -3.181347         0.411938         0.375709
 H        -2.374702         0.226526         2.016672
 H        -0.798561         2.196971         1.590834
 H        -2.484250         3.649158         0.459581
 H        -2.871991         3.590980        -1.779863
 H        -3.231716         1.676331        -2.955375
 H        -1.605192         1.830835        -3.334732
 H        -0.120136        -0.500302        -1.347906
 H        -0.168424         1.116606        -1.580686
