19
Iteration:  1807
 O         0.136235        -0.018945         0.991449
 C        -0.879696         0.590029         0.238272
 C        -2.242633         0.605095         1.011485
 C        -1.585610         1.846947         0.701828
 C        -2.087727         2.872444        -0.243913
 C        -2.133729         2.817254        -1.623770
 C        -2.211826         1.593377        -2.538691
 O        -2.054845         0.353001        -1.762140
 C        -0.858713         0.032575        -1.186995
 H         1.012102         0.212750         0.696755
 H        -3.062222         0.384885         0.320940
 H        -2.135096         0.229881         2.041936
 H        -1.211129         2.317119         1.613299
 H        -2.333282         3.859312         0.157183
 H        -2.221232         3.779564        -2.248197
 H        -3.218782         1.506839        -3.125049
 H        -1.431164         1.684793        -3.263597
 H        -0.607381        -1.000089        -1.134469
 H         0.087461         0.305880        -1.794370
