19
Iteration:  2550charge 0 multiplicity 1
 O         0.137860        -0.044077         1.207172
 C        -0.822579         0.576763         0.300942
 C        -2.202991         0.586821         0.902849
 C        -1.536499         1.876129         0.655381
 C        -1.974107         2.922292        -0.321908
 C        -2.257854         2.821750        -1.635484
 C        -2.398848         1.610291        -2.522872
 O        -2.048374         0.287338        -1.847681
 C        -0.784569         0.055925        -1.209955
 H         1.029076         0.315138         0.989662
 H        -3.147812         0.407247         0.302884
 H        -2.287563         0.046641         1.914171
 H        -1.129596         2.304437         1.624910
 H        -2.166740         3.934553         0.115762
 H        -2.264816         3.799843        -2.141813
 H        -3.397970         1.558150        -3.061242
 H        -1.612930         1.806895        -3.352235
 H        -0.587636        -1.040528        -1.124417
 H         0.048813         0.490543        -1.814407
