19
Iteration:  4047
 O         0.134550         0.148905         1.032186
 C        -0.967542         0.459000         0.288238
 C        -2.312454         0.357672         0.962903
 C        -1.707813         1.751939         0.695117
 C        -1.816647         2.886523        -0.369081
 C        -2.033324         2.826705        -1.651195
 C        -2.283209         1.621119        -2.428522
 O        -2.119331         0.336052        -1.766307
 C        -0.787855         0.193677        -1.187775
 H         0.895445         0.851914         0.881489
 H        -3.176544         0.232241         0.302022
 H        -2.373241         0.008526         1.996466
 H        -1.260218         2.087047         1.601086
 H        -1.504865         3.847940        -0.005904
 H        -2.171740         3.611740        -2.268269
 H        -3.313327         1.446994        -2.798872
 H        -1.638228         1.534246        -3.462770
 H        -0.308226        -0.685770        -1.404734
 H        -0.304874         1.061870        -1.578289
