19
Iteration:  1260charge 0 multiplicity 1
 O         0.016748        -0.120121         1.173847
 C        -0.872096         0.526720         0.288744
 C        -2.211450         0.714640         0.896826
 C        -1.313631         1.928079         0.627849
 C        -1.974507         2.944147        -0.258931
 C        -2.418973         2.693603        -1.542119
 C        -2.267879         1.534324        -2.491903
 O        -1.988787         0.347106        -1.918757
 C        -0.790466         0.162122        -1.182826
 H         0.803425        -0.286773         0.578510
 H        -3.026946         0.674252         0.172801
 H        -2.304272         0.284612         1.915071
 H        -0.890848         2.449429         1.505303
 H        -2.299687         3.885079         0.228919
 H        -2.988957         3.465467        -2.162650
 H        -3.293986         1.411825        -2.979724
 H        -1.553406         1.717083        -3.328893
 H        -0.611392        -0.932907        -1.164199
 H         0.094921         0.573728        -1.664755
