19
Iteration:  4211charge 0 multiplicity 1
 O         0.257611         0.289034         0.911662
 C        -0.974067         0.450703         0.278026
 C        -2.218645         0.487084         1.048565
 C        -1.579511         1.766589         0.614032
 C        -2.175001         2.878418        -0.301543
 C        -2.103835         2.829248        -1.607898
 C        -1.868658         1.617285        -2.421625
 O        -2.176507         0.401041        -1.852680
 C        -1.083050        -0.131574        -1.107243
 H         0.835408         0.747740         0.368551
 H        -3.164366         0.078799         0.659808
 H        -2.170372         0.361546         2.157971
 H        -1.023710         2.122540         1.516643
 H        -2.441085         3.706467         0.229649
 H        -2.662965         3.604112        -2.126252
 H        -2.350703         1.848571        -3.377389
 H        -0.712438         1.810631        -2.599470
 H        -1.330934        -1.217392        -0.895397
 H        -0.061284         0.047750        -1.683112
