19
Iteration:  4576charge 0 multiplicity 1
 O         0.085399         0.012610         1.055186
 C        -0.923457         0.493345         0.275902
 C        -2.192943         0.587144         1.021667
 C        -1.442270         1.892139         0.578259
 C        -2.098769         2.847027        -0.281576
 C        -2.434433         2.845693        -1.596080
 C        -2.051685         1.742977        -2.456004
 O        -1.991777         0.366413        -1.905485
 C        -0.853951        -0.076366        -1.136877
 H         0.904204         0.431153         0.713831
 H        -3.138885         0.301223         0.490338
 H        -2.235318         0.369563         2.134571
 H        -0.828911         2.322440         1.410296
 H        -2.358967         3.710326         0.324071
 H        -3.052713         3.608395        -2.155679
 H        -2.812771         1.604360        -3.253778
 H        -1.065969         1.981202        -3.059795
 H        -0.937498        -1.278335        -0.978305
 H         0.183023        -0.176161        -1.658435
