19
Iteration:  1584
 O         0.232367         0.246155         0.998795
 C        -0.923434         0.470491         0.240818
 C        -2.306901         0.594650         1.148803
 C        -1.554489         1.809300         0.658097
 C        -2.024032         2.872410        -0.201276
 C        -2.171041         2.827862        -1.581278
 C        -2.017891         1.636264        -2.447021
 O        -2.224866         0.275508        -1.993862
 C        -0.987415        -0.116190        -1.202228
 H         0.948605         0.751318         0.685314
 H        -3.067106         0.198229         0.540871
 H        -2.050099         0.139512         2.075222
 H        -0.893959         2.252977         1.459640
 H        -1.993021         3.877883         0.278537
 H        -2.219587         3.784481        -2.173272
 H        -2.640769         1.617633        -3.455268
 H        -0.952026         1.770462        -2.783931
 H        -1.219479        -1.135984        -1.186712
 H        -0.035967         0.179644        -1.685169
