19
Iteration:  3214charge 0 multiplicity 1
 O         0.173880         0.022133         1.079010
 C        -0.923105         0.452458         0.353591
 C        -2.235414         0.413623         0.991154
 C        -1.545861         1.786827         0.678964
 C        -1.934153         2.893629        -0.384187
 C        -2.214287         2.869275        -1.680744
 C        -2.190055         1.602733        -2.490836
 O        -2.132699         0.388258        -1.801912
 C        -0.850448         0.160931        -1.206053
 H         0.911716         0.703807         0.915213
 H        -3.153790         0.338854         0.339246
 H        -2.397310         0.048915         2.015783
 H        -1.119853         2.321667         1.511704
 H        -2.136901         3.887637         0.100552
 H        -2.646954         3.885858        -2.080043
 H        -3.220200         1.514053        -3.046120
 H        -1.341772         1.635582        -3.273518
 H        -0.701907        -0.915960        -1.229172
 H         0.054098         0.772815        -1.599953
