19
Iteration:    94charge 0 multiplicity 1
 O         0.248584         0.042135         0.862752
 C        -1.019159         0.433677         0.310244
 C        -2.310194         0.605926         1.060564
 C        -1.575588         1.853638         0.786230
 C        -2.104333         2.823926        -0.162986
 C        -2.182462         2.704770        -1.525835
 C        -2.271289         1.619991        -2.473733
 O        -1.911943         0.327854        -2.038587
 C        -0.796223         0.246181        -1.198001
 H         0.043163        -0.624449         1.566730
 H        -3.253997         0.650229         0.509075
 H        -2.568848         0.230616         2.079109
 H        -0.924401         2.233983         1.554657
 H        -1.931583         3.861449         0.096199
 H        -1.963248         3.637300        -2.105031
 H        -3.348194         1.444484        -2.722224
 H        -1.794493         1.867139        -3.478415
 H        -0.363863        -0.750240        -1.523936
 H         0.023064         0.989573        -1.503175
