19
Iteration:  3438
 O         0.191125         0.132122         0.931951
 C        -1.006098         0.438240         0.176181
 C        -2.146293         0.535688         1.271499
 C        -1.538612         1.843094         0.515793
 C        -2.292752         2.863583        -0.272805
 C        -2.228609         2.893967        -1.571484
 C        -1.784106         1.685799        -2.428655
 O        -2.091262         0.431226        -1.923996
 C        -1.065306        -0.194572        -1.149405
 H         0.977293         0.651193         0.500741
 H        -3.093585         0.158500         0.917981
 H        -1.762203         0.258848         2.259830
 H        -0.792003         2.324585         1.244940
 H        -2.680761         3.719368         0.286238
 H        -2.710599         3.758745        -2.111441
 H        -2.519306         1.844607        -3.328117
 H        -0.682811         1.662782        -2.671572
 H        -1.357026        -1.239072        -0.899318
 H        -0.056043        -0.019662        -1.600777
