19
Iteration:   951charge 0 multiplicity 1
 O         0.297560         0.114872         1.073835
 C        -0.920579         0.472831         0.395087
 C        -2.346762         0.384399         0.935276
 C        -1.542851         1.807644         0.732039
 C        -1.790629         2.808472        -0.348173
 C        -2.077277         2.781803        -1.675996
 C        -2.349284         1.572504        -2.518673
 O        -2.196343         0.325042        -1.847658
 C        -0.928941         0.273296        -1.190310
 H         0.605212         0.817309         1.598951
 H        -3.010767        -0.038755         0.185864
 H        -2.539064         0.060803         1.941933
 H        -1.260684         2.390405         1.643514
 H        -1.595175         3.892599         0.039809
 H        -2.118656         3.737122        -2.221128
 H        -3.426867         1.662503        -2.954823
 H        -1.735371         1.663622        -3.435045
 H        -0.444957        -0.681378        -1.592404
 H        -0.428795         1.156108        -1.547381
