19
Iteration:  2437
 O         0.133655         0.100906         1.137079
 C        -0.906695         0.431269         0.290135
 C        -2.290367         0.570614         0.867781
 C        -1.435515         1.775155         0.604954
 C        -1.968653         2.916139        -0.294538
 C        -2.302421         2.803381        -1.584611
 C        -2.265134         1.591984        -2.461458
 O        -2.081613         0.362192        -1.802695
 C        -0.748105         0.085486        -1.160293
 H         0.851308         0.629043         0.853152
 H        -2.969930         0.277042         0.169213
 H        -2.515038         0.206808         1.821550
 H        -0.839975         2.093096         1.421964
 H        -2.090682         3.850618         0.176648
 H        -2.556795         3.659928        -2.211583
 H        -3.211111         1.491620        -3.069133
 H        -1.554164         1.659382        -3.380476
 H        -0.806519        -1.021951        -1.266463
 H         0.048469         0.575932        -1.771468
