19
Iteration:  3752charge 0 multiplicity 1
 O         0.065309        -0.081027         1.104774
 C        -0.904031         0.540029         0.278387
 C        -2.220826         0.652279         0.956335
 C        -1.473179         1.890442         0.620584
 C        -2.061361         2.926623        -0.220359
 C        -2.322519         2.760217        -1.587936
 C        -2.245300         1.576547        -2.452299
 O        -1.943152         0.312902        -2.005214
 C        -0.809581         0.109323        -1.154881
 H         1.026959         0.266928         1.107152
 H        -3.199475         0.438491         0.534455
 H        -2.098771         0.421636         2.023193
 H        -0.921022         2.445284         1.524541
 H        -2.145528         3.937889         0.219284
 H        -2.859512         3.613607        -2.212392
 H        -3.234706         1.450154        -2.940638
 H        -1.538417         1.730724        -3.220829
 H        -0.575959        -0.958418        -1.151720
 H         0.217870         0.391932        -1.531593
