19
Iteration:  1373charge 0 multiplicity 1
 O         0.177167         0.172667         1.051695
 C        -0.958787         0.499292         0.275799
 C        -2.305435         0.398988         0.909129
 C        -1.596999         1.833801         0.771884
 C        -1.790888         2.850181        -0.303289
 C        -2.168076         2.839260        -1.591858
 C        -2.279637         1.599295        -2.622491
 O        -2.103152         0.349996        -1.777055
 C        -0.883175         0.049921        -1.146909
 H         0.898980         0.771492         0.634470
 H        -3.141377         0.226694         0.203059
 H        -2.356589         0.168289         1.989493
 H        -0.979885         2.210295         1.586499
 H        -1.585322         3.785030         0.191906
 H        -2.243033         3.799984        -2.059144
 H        -3.357383         1.366614        -3.000211
 H        -1.649512         1.857621        -3.435073
 H        -0.778686        -1.012624        -1.129035
 H        -0.012659         0.533426        -1.651231
