19
Iteration:  4714charge 0 multiplicity 1
 O         0.098809        -0.132831         1.044729
 C        -0.850812         0.588551         0.244453
 C        -2.197044         0.648426         1.036214
 C        -1.376976         1.929654         0.610693
 C        -2.213674         2.881032        -0.221571
 C        -2.433241         2.806661        -1.581222
 C        -1.947313         1.658933        -2.506448
 O        -2.115103         0.316802        -1.903241
 C        -0.859412         0.033197        -1.181629
 H         0.964804         0.298739         0.898891
 H        -3.148648         0.498593         0.420459
 H        -2.182664         0.299850         2.119146
 H        -0.844058         2.447076         1.465751
 H        -2.501756         3.718657         0.375889
 H        -3.196585         3.461954        -2.015926
 H        -2.459065         1.665903        -3.505101
 H        -0.835953         1.841640        -2.632345
 H        -0.874469        -1.035928        -1.102307
 H         0.060894         0.217869        -1.869759
