19
Iteration:  3644charge 0 multiplicity 1
 O         0.256095         0.056654         1.103394
 C        -0.989073         0.445847         0.382194
 C        -2.372647         0.488147         0.892239
 C        -1.612625         1.796475         0.708810
 C        -1.782656         2.905432        -0.306272
 C        -2.120500         2.825062        -1.604610
 C        -2.432022         1.563772        -2.528445
 O        -2.037475         0.267791        -1.909960
 C        -0.819450         0.245431        -1.170333
 H         0.930493         0.839549         1.022957
 H        -3.083000         0.196592         0.088067
 H        -2.549219         0.203221         1.922722
 H        -1.162592         2.228372         1.728723
 H        -1.539788         3.857257         0.230988
 H        -2.418413         3.696156        -2.261997
 H        -3.460218         1.536211        -2.814732
 H        -1.927799         1.679805        -3.575882
 H        -0.406988        -0.807859        -1.183593
 H        -0.143873         1.047509        -1.506503
