19
Iteration:  3491charge 0 multiplicity 1
 O         0.200385         0.036303         0.825450
 C        -1.033237         0.455997         0.273307
 C        -2.102591         0.665689         1.199285
 C        -1.421720         1.930875         0.642101
 C        -2.214909         2.916576        -0.215822
 C        -2.538228         2.690178        -1.571629
 C        -1.645730         1.752564        -2.412651
 O        -1.984827         0.385372        -2.048628
 C        -1.226066        -0.153910        -1.081308
 H         1.000207         0.321339         0.230339
 H        -3.086216         0.552235         0.768320
 H        -2.118350         0.546788         2.291871
 H        -0.720962         2.341201         1.528281
 H        -2.986831         3.583170         0.193579
 H        -3.208274         3.419093        -2.099760
 H        -1.842750         1.861285        -3.548640
 H        -0.561659         1.880108        -2.212866
 H        -1.370183        -1.276497        -0.924252
 H        -0.180174        -0.149940        -1.440906
