19
Iteration:  3183
 O         0.150952         0.002035         0.977596
 C        -0.909144         0.511951         0.229870
 C        -2.170848         0.523587         1.067681
 C        -1.523706         1.884210         0.638355
 C        -2.189898         2.825171        -0.276423
 C        -2.178907         2.782729        -1.602406
 C        -2.015830         1.644165        -2.444885
 O        -2.160026         0.377324        -1.829883
 C        -0.869471         0.055095        -1.163168
 H         0.905457         0.522063         0.801678
 H        -3.098783         0.547035         0.394608
 H        -2.296799         0.217927         2.116942
 H        -1.096643         2.516876         1.327920
 H        -2.415797         3.887480         0.049728
 H        -2.358394         3.765451        -2.108809
 H        -3.026377         1.706677        -3.120935
 H        -1.120300         1.542685        -3.049333
 H        -0.906416        -1.055877        -1.169311
 H         0.035673         0.470294        -1.764921
