19
Iteration:   409
 O         0.126215        -0.002799         0.983664
 C        -0.905038         0.543247         0.204684
 C        -2.227503         0.535321         0.908658
 C        -1.492296         1.922424         0.686945
 C        -2.096137         2.964007        -0.275943
 C        -2.413955         2.834432        -1.581982
 C        -2.011991         1.580216        -2.369121
 O        -2.080535         0.315044        -1.763976
 C        -0.843655         0.013290        -1.211963
 H         0.921862         0.555553         0.767181
 H        -3.015472         0.264618         0.213591
 H        -2.187693         0.080164         1.908649
 H        -0.993594         2.170044         1.597790
 H        -2.269365         3.947991         0.219579
 H        -2.757858         3.654202        -2.180359
 H        -2.634464         1.359707        -3.273926
 H        -1.004279         1.778064        -2.875857
 H        -0.741691        -1.069948        -1.227821
 H         0.017155         0.467149        -1.768177
