19
Iteration:  3986
 O         0.162521         0.055625         0.990122
 C        -0.925119         0.527536         0.253883
 C        -2.251333         0.494458         0.985884
 C        -1.519647         1.827660         0.673582
 C        -2.090783         2.958226        -0.262199
 C        -2.201418         2.840333        -1.569954
 C        -2.076326         1.586988        -2.502394
 O        -2.070731         0.328186        -1.879521
 C        -0.934233         0.017776        -1.127060
 H         0.947185         0.627228         0.855079
 H        -3.236625         0.263170         0.526377
 H        -2.176531         0.258543         2.061295
 H        -1.256213         2.255440         1.628550
 H        -2.386251         3.866353         0.292318
 H        -2.186563         3.757011        -2.312507
 H        -3.011332         1.604794        -3.068192
 H        -1.287178         1.888795        -3.173776
 H        -0.693929        -1.117506        -1.111514
 H        -0.011190         0.335489        -1.663390
