19
Iteration:  2016
 O         0.248221         0.067126         0.971006
 C        -0.982156         0.447058         0.381029
 C        -2.323557         0.582936         1.058881
 C        -1.465903         1.858155         0.712170
 C        -1.996240         2.836333        -0.341181
 C        -2.322293         2.787188        -1.664828
 C        -2.082037         1.614665        -2.487242
 O        -2.111000         0.354089        -1.877070
 C        -0.903905         0.097994        -1.110551
 H         0.962502         0.380212         0.352522
 H        -3.077475         0.364278         0.359984
 H        -2.506326         0.197793         2.047041
 H        -0.996335         2.270049         1.622947
 H        -2.284062         3.766671         0.175346
 H        -2.401486         3.758084        -2.182018
 H        -2.796521         1.542400        -3.406277
 H        -1.172646         1.679181        -3.042195
 H        -0.762621        -0.932753        -1.106037
 H        -0.064495         0.461036        -1.672825
