19
Iteration:   703
 O         0.259548        -0.042730         0.876028
 C        -0.993978         0.481618         0.378585
 C        -2.159563         0.652758         1.246989
 C        -1.436488         1.921216         0.581572
 C        -2.236484         2.868656        -0.284930
 C        -2.400055         2.776785        -1.624661
 C        -1.821256         1.673618        -2.416320
 O        -2.159736         0.323561        -2.012605
 C        -1.008603        -0.050301        -1.198768
 H         0.665126         0.745282         1.160986
 H        -3.235632         0.608655         0.993734
 H        -1.975880         0.543088         2.297399
 H        -0.848709         2.446914         1.415109
 H        -2.412534         3.934542         0.245232
 H        -3.015169         3.479243        -2.276240
 H        -2.245439         1.934963        -3.333070
 H        -0.758396         1.695527        -2.458407
 H        -0.850425        -1.101249        -1.148016
 H        -0.062893         0.236515        -1.688269
