19
Iteration:  2524charge 0 multiplicity 1
 O         0.111251        -0.020926         1.118145
 C        -0.962212         0.543997         0.333005
 C        -2.275222         0.519182         0.958544
 C        -1.502543         1.909476         0.724804
 C        -1.843088         2.932749        -0.336223
 C        -2.228700         2.722047        -1.612989
 C        -2.331098         1.523991        -2.526537
 O        -2.011106         0.227363        -1.892819
 C        -0.836869         0.305772        -1.206721
 H         0.898447         0.148686         0.597729
 H        -3.281142         0.275697         0.567403
 H        -2.187727         0.286312         2.005347
 H        -1.036512         2.206858         1.710974
 H        -1.881573         3.981860        -0.068073
 H        -2.559770         3.678018        -2.075293
 H        -3.381870         1.502240        -2.857460
 H        -1.727850         1.683647        -3.368967
 H        -0.269737        -0.636096        -1.247875
 H        -0.231416         0.993895        -1.646185
