19
Iteration:   620charge 0 multiplicity 1
 O         0.159163         0.174412         0.921438
 C        -1.024239         0.513162         0.200604
 C        -2.271588         0.604744         1.049811
 C        -1.473486         1.876748         0.700638
 C        -2.011548         2.956735        -0.177869
 C        -2.352810         2.749105        -1.490836
 C        -2.033914         1.539467        -2.495919
 O        -1.995002         0.253408        -1.916746
 C        -0.927646         0.033808        -1.194486
 H         0.421663        -0.736087         0.543915
 H        -3.297579         0.545676         0.660222
 H        -2.139458         0.376183         2.098507
 H        -0.845919         2.201629         1.504642
 H        -2.221755         3.855782         0.288065
 H        -2.667713         3.669573        -2.001446
 H        -2.576137         1.609818        -3.495427
 H        -1.019119         1.788722        -2.772181
 H        -0.902984        -1.082032        -1.222238
 H        -0.050027         0.563711        -1.559330
