19
Iteration:  4899charge 0 multiplicity 1
 O         0.146087        -0.037844         0.980167
 C        -0.958148         0.537559         0.266347
 C        -2.266717         0.640702         0.959779
 C        -1.557796         1.926686         0.753289
 C        -2.050924         2.939966        -0.169553
 C        -2.216550         2.781030        -1.509878
 C        -2.165410         1.582605        -2.523026
 O        -2.027617         0.215630        -1.958848
 C        -0.816350         0.074868        -1.190764
 H         0.893493         0.403098         0.662552
 H        -3.210253         0.455284         0.322585
 H        -2.435104         0.299392         2.082936
 H        -1.004867         2.243567         1.717210
 H        -1.933269         3.959668         0.123246
 H        -2.417602         3.746654        -2.089592
 H        -3.146154         1.556224        -2.873305
 H        -1.449390         1.776393        -3.342341
 H        -0.608798        -0.975250        -1.192974
 H        -0.016494         0.798662        -1.561004
