19
Iteration:  1994charge 0 multiplicity 1
 O         0.181468         0.122711         0.924876
 C        -0.991140         0.541046         0.216774
 C        -2.188910         0.565200         1.105388
 C        -1.567216         1.866213         0.678789
 C        -2.053618         2.943704        -0.193011
 C        -2.143534         2.745915        -1.562433
 C        -1.972484         1.585332        -2.523577
 O        -2.142342         0.280276        -1.933730
 C        -1.012519        -0.012723        -1.148069
 H         0.864351         0.817809         0.859194
 H        -3.072383         0.246145         0.661289
 H        -2.182130         0.448178         2.174203
 H        -1.111707         2.207973         1.642188
 H        -2.284361         3.901522         0.336520
 H        -2.847348         3.496737        -2.015192
 H        -2.676177         1.726878        -3.469781
 H        -0.957964         1.601200        -2.984856
 H        -0.885420        -1.036102        -0.995985
 H        -0.136943         0.242513        -1.732365
