19
Iteration:  3430
 O         0.165920         0.163007         0.894142
 C        -1.012617         0.473834         0.241328
 C        -2.129529         0.567791         1.208854
 C        -1.546137         1.757326         0.562232
 C        -2.226229         2.810654        -0.242502
 C        -2.232224         2.956186        -1.629313
 C        -1.816228         1.705405        -2.429341
 O        -2.085996         0.351097        -1.899726
 C        -1.075285        -0.147957        -1.141792
 H         0.952685         0.738522         0.597286
 H        -3.101097         0.172966         0.921722
 H        -1.948974         0.432697         2.306994
 H        -1.044867         2.164126         1.391861
 H        -2.259581         3.710033         0.428644
 H        -2.818560         3.855138        -2.057125
 H        -2.318315         1.615468        -3.407359
 H        -0.800196         1.813815        -2.817120
 H        -1.214377        -1.234679        -1.207264
 H        -0.087620        -0.050996        -1.681952
