19
Iteration:  2432charge 0 multiplicity 1
 O         0.146063         0.111037         1.113644
 C        -0.905348         0.420180         0.287593
 C        -2.314244         0.561881         0.917731
 C        -1.451245         1.810078         0.601388
 C        -1.962822         2.883289        -0.306221
 C        -2.280821         2.800431        -1.607565
 C        -2.224970         1.631694        -2.493561
 O        -2.080792         0.341674        -1.771577
 C        -0.803977         0.085965        -1.193429
 H         1.005378         0.530247         0.763309
 H        -3.020881         0.278448         0.037904
 H        -2.710265         0.233821         1.940155
 H        -0.790662         2.133364         1.453902
 H        -2.136117         3.824933         0.315994
 H        -2.794826         3.642867        -2.126668
 H        -3.201034         1.448450        -2.938381
 H        -1.475467         1.711438        -3.262467
 H        -0.534994        -0.986873        -1.295044
 H         0.120666         0.537473        -1.599555
