19
Iteration:  2474
 O         0.127366        -0.043750         1.079695
 C        -0.880185         0.585151         0.353781
 C        -2.273194         0.557115         0.944457
 C        -1.539595         1.905547         0.716158
 C        -1.849347         2.981657        -0.322178
 C        -2.219973         2.798350        -1.596154
 C        -2.373258         1.458912        -2.482455
 O        -2.074996         0.229593        -1.985917
 C        -0.774019         0.195873        -1.171891
 H         0.706782         0.625033         1.455658
 H        -3.003945         0.286492         0.088589
 H        -2.219438         0.133115         1.999160
 H        -1.161138         2.280385         1.747193
 H        -2.081792         3.976603         0.174247
 H        -2.589088         3.745029        -2.041505
 H        -3.466127         1.541678        -2.642611
 H        -1.667593         1.695254        -3.335373
 H        -0.383496        -0.865521        -1.198209
 H         0.128970         0.727386        -1.826409
