19
Iteration:  1721charge 0 multiplicity 1
 O         0.110067        -0.070838         0.998487
 C        -0.984145         0.584753         0.285930
 C        -2.282448         0.588847         0.856806
 C        -1.565497         1.964298         0.707021
 C        -1.922496         2.996957        -0.256562
 C        -2.069618         2.794905        -1.568203
 C        -2.388970         1.546613        -2.318451
 O        -1.993279         0.121799        -1.977315
 C        -0.731042         0.180721        -1.197695
 H         0.863117         0.599224         1.215823
 H        -3.037228         0.135887         0.193704
 H        -2.476241         0.338476         1.943673
 H        -1.325163         2.279373         1.711207
 H        -1.905918         3.979035         0.184955
 H        -2.374616         3.720775        -2.183759
 H        -3.516783         1.512993        -2.161698
 H        -2.187413         1.814454        -3.416394
 H        -0.443396        -0.973832        -1.059461
 H         0.057087         0.800862        -1.654736
