19
Iteration:  1728charge 0 multiplicity 1
 O         0.082159        -0.028842         1.010625
 C        -0.939460         0.641410         0.272871
 C        -2.276741         0.497879         0.861536
 C        -1.531759         1.903148         0.652884
 C        -1.904070         2.947593        -0.227682
 C        -2.042838         2.774212        -1.595526
 C        -2.401453         1.515410        -2.330372
 O        -2.020967         0.196015        -1.969615
 C        -0.762370         0.202159        -1.155830
 H         0.775227         0.584114         1.334438
 H        -3.137043         0.326355         0.173433
 H        -2.400242         0.497569         1.955199
 H        -1.209778         2.228899         1.622255
 H        -2.065405         3.891510         0.288855
 H        -2.230032         3.619035        -2.172010
 H        -3.562941         1.579181        -2.289919
 H        -2.182900         1.671444        -3.398722
 H        -0.512174        -0.793305        -0.972406
 H         0.042111         0.846480        -1.713695
