19
Iteration:    13charge 0 multiplicity 1
 O         0.257747         0.018637         1.027262
 C        -0.922397         0.451396         0.293208
 C        -2.339025         0.514436         0.894552
 C        -1.487841         1.836599         0.588335
 C        -2.016663         3.014311        -0.207377
 C        -2.336113         2.863056        -1.550137
 C        -2.169927         1.694609        -2.470284
 O        -2.012376         0.370188        -1.874449
 C        -0.766924         0.069505        -1.152531
 H         0.279929        -0.930104         0.914619
 H        -2.943910        -0.037436         0.197391
 H        -2.399492         0.274116         1.937884
 H        -0.985549         2.095743         1.530073
 H        -2.785700         3.612706         0.303341
 H        -3.306841         3.377577        -1.810110
 H        -3.154182         1.604443        -2.998245
 H        -1.378506         1.854369        -3.247307
 H        -0.711822        -1.031062        -1.238481
 H         0.126620         0.564170        -1.557955
