19
Iteration:  2181
 O         0.180041         0.036415         1.136463
 C        -0.858141         0.468571         0.310943
 C        -2.321641         0.554651         0.900657
 C        -1.542054         1.799981         0.641526
 C        -1.865425         2.938506        -0.324645
 C        -2.338963         2.736624        -1.583823
 C        -2.182088         1.598490        -2.486752
 O        -2.172304         0.332877        -1.781274
 C        -0.853103         0.155381        -1.208482
 H         0.990409         0.421424         0.692048
 H        -2.992101         0.120246         0.134493
 H        -2.577536         0.305668         2.005353
 H        -1.159103         2.292294         1.547397
 H        -1.593905         3.988073        -0.123302
 H        -2.428134         3.593368        -2.171171
 H        -2.925269         1.601773        -3.240919
 H        -1.251498         1.720188        -3.216508
 H        -0.447788        -0.822232        -1.273642
 H        -0.025666         0.758196        -1.791086
