19
Iteration:   755charge 0 multiplicity 1
 O         0.352815         0.301489         0.895696
 C        -0.981846         0.453787         0.275238
 C        -2.196365         0.569883         1.108185
 C        -1.562689         1.856416         0.692775
 C        -2.145262         2.825172        -0.244853
 C        -2.070957         2.841793        -1.562608
 C        -1.974988         1.658075        -2.466479
 O        -2.147876         0.341694        -1.955824
 C        -1.176135        -0.269110        -1.133604
 H         0.524442         1.203211         1.126474
 H        -3.039177         0.298860         0.452352
 H        -2.227750         0.194703         2.110828
 H        -0.754364         2.255814         1.345707
 H        -2.711898         3.706627         0.273270
 H        -2.259645         3.794057        -2.114108
 H        -2.764868         1.844924        -3.230109
 H        -0.966472         1.665547        -3.081532
 H        -1.420177        -1.348042        -1.070366
 H        -0.171342        -0.216559        -1.652965
