19
Iteration:  4398charge 0 multiplicity 1
 O         0.182208         0.039780         1.037570
 C        -0.911605         0.568885         0.323427
 C        -2.251630         0.471400         1.032013
 C        -1.611999         1.873416         0.760451
 C        -2.018417         2.817559        -0.298253
 C        -2.112684         2.756950        -1.653892
 C        -2.151684         1.645677        -2.529787
 O        -2.100984         0.358785        -1.959658
 C        -0.887987         0.099906        -1.129334
 H         0.905764         0.646837         1.003435
 H        -3.156465         0.144529         0.573086
 H        -2.188976         0.270371         2.084092
 H        -1.296785         2.393455         1.701705
 H        -1.953466         3.770364         0.015713
 H        -2.440048         3.749359        -1.998584
 H        -3.160326         1.572105        -3.017737
 H        -1.553800         1.709473        -3.458368
 H        -0.868424        -1.104327        -1.329462
 H        -0.048167         0.581555        -1.650887
