19
Iteration:  3222
 O         0.193671         0.025190         1.102119
 C        -0.923722         0.508993         0.397998
 C        -2.270914         0.348649         0.957651
 C        -1.527440         1.859372         0.661921
 C        -1.880535         2.868777        -0.374569
 C        -2.276087         2.812341        -1.652930
 C        -2.231937         1.679403        -2.537892
 O        -2.131095         0.361624        -1.840818
 C        -0.856547         0.124599        -1.141667
 H         0.959049         0.638937         0.953299
 H        -3.066144         0.181357         0.236273
 H        -2.474999         0.187731         2.009030
 H        -1.059173         2.254514         1.642736
 H        -1.781517         3.862543         0.033881
 H        -2.493087         3.799540        -2.204914
 H        -3.140944         1.658227        -3.024888
 H        -1.574188         1.893118        -3.394663
 H        -0.494441        -0.889495        -1.289117
 H        -0.086925         0.711005        -1.636580
