19
Iteration:  4403
 O         0.192945         0.041138         1.020608
 C        -0.914914         0.578931         0.360239
 C        -2.257373         0.413467         1.011605
 C        -1.626449         1.844881         0.770605
 C        -2.011748         2.824719        -0.321228
 C        -2.083580         2.814779        -1.657971
 C        -2.175052         1.627724        -2.575548
 O        -2.126959         0.353058        -1.935144
 C        -0.870939         0.103960        -1.116619
 H         0.919692         0.768601         0.855967
 H        -3.258149         0.236490         0.538529
 H        -2.200468         0.149319         2.085940
 H        -1.263673         2.316497         1.653403
 H        -2.019032         3.971909         0.135173
 H        -2.253169         3.765290        -2.195645
 H        -3.259317         1.615550        -2.807983
 H        -1.507588         1.622660        -3.459055
 H        -0.774449        -0.943693        -1.048336
 H         0.026420         0.602287        -1.555202
