19
Iteration:    31
 O         0.224193        -0.098473         1.103073
 C        -0.851663         0.453768         0.317291
 C        -2.267794         0.575147         0.751920
 C        -1.409062         1.849944         0.574758
 C        -2.099621         2.936448        -0.268060
 C        -2.561512         2.909707        -1.534514
 C        -2.215425         1.681357        -2.406538
 O        -1.921005         0.390449        -1.829809
 C        -0.759918         0.042468        -1.165205
 H         0.377932        -0.967848         0.712940
 H        -3.087472         0.631315         0.064216
 H        -2.557476         0.409042         1.796736
 H        -1.177732         2.372367         1.480843
 H        -2.189873         3.837679         0.322290
 H        -3.041174         3.767579        -1.892012
 H        -3.108565         1.442963        -2.947155
 H        -1.491149         1.952800        -3.159925
 H        -0.572366        -1.039011        -1.178409
 H         0.173350         0.456239        -1.577472
