19
Iteration:   505charge 0 multiplicity 1
 O         0.179289        -0.029671         0.943644
 C        -0.905943         0.634006         0.334966
 C        -2.285084         0.554249         0.957619
 C        -1.529920         1.950081         0.787467
 C        -1.956076         2.947265        -0.215542
 C        -2.179993         2.758135        -1.597283
 C        -2.285393         1.543365        -2.526780
 O        -2.044190         0.156317        -1.967415
 C        -0.813745         0.217945        -1.196148
 H         0.121567         0.065755         1.964138
 H        -3.112320         0.275652         0.268862
 H        -2.241326         0.025465         1.924756
 H        -1.125306         2.298140         1.700665
 H        -2.115747         3.986600         0.148986
 H        -2.328885         3.639384        -2.174581
 H        -3.339908         1.567466        -2.710025
 H        -1.813254         1.652531        -3.461504
 H        -0.440968        -0.775706        -0.971755
 H        -0.098806         0.890818        -1.625280
