19
Iteration:   173charge 0 multiplicity 1
 O         0.164599         0.221335         0.975357
 C        -0.971719         0.485827         0.254375
 C        -2.272026         0.380987         0.944822
 C        -1.482350         1.751336         0.651034
 C        -2.026267         2.812727        -0.269669
 C        -2.173653         2.806648        -1.586641
 C        -2.144899         1.630207        -2.460968
 O        -2.088191         0.441089        -1.763485
 C        -0.839855         0.140149        -1.221665
 H         0.190879        -0.728261         1.220593
 H        -3.125208         0.197432         0.308627
 H        -2.203892         0.150520         1.990397
 H        -1.011553         2.123758         1.574137
 H        -2.165797         3.703581         0.292849
 H        -2.662141         3.689356        -1.953783
 H        -3.113807         1.624943        -2.976371
 H        -1.444511         1.729455        -3.318305
 H        -0.644014        -0.959019        -1.400192
 H         0.075900         0.705611        -1.637573
