19
Iteration:  3390charge 0 multiplicity 1
 O         0.238407         0.075337         0.969187
 C        -0.874682         0.568366         0.321606
 C        -2.280769         0.511233         0.927148
 C        -1.550595         1.885830         0.783735
 C        -2.004557         2.862873        -0.174611
 C        -2.196804         2.778034        -1.569891
 C        -2.067127         1.605948        -2.582661
 O        -2.125801         0.302474        -1.935499
 C        -1.013759         0.031862        -1.144719
 H         0.935248         0.687820         0.779979
 H        -3.139317         0.380702         0.254495
 H        -2.415150         0.286533         1.993153
 H        -1.095825         2.409024         1.623540
 H        -2.265928         3.854497         0.260626
 H        -2.683392         3.693678        -2.002148
 H        -2.915243         1.644013        -3.243303
 H        -1.087777         1.660320        -3.110490
 H        -0.967969        -1.036250        -0.922495
 H        -0.119586         0.359458        -1.675478
