19
Iteration:  1575
 O         0.205607         0.266621         1.011490
 C        -0.988265         0.536438         0.218347
 C        -2.226358         0.493081         1.178545
 C        -1.533437         1.781066         0.611597
 C        -2.056315         2.945735        -0.241898
 C        -2.145332         2.852053        -1.538948
 C        -1.963967         1.600350        -2.494860
 O        -2.179914         0.324736        -1.963281
 C        -1.046324        -0.187094        -1.211886
 H         0.900066         0.715599         0.586308
 H        -3.183184         0.211021         0.833178
 H        -2.060360         0.191033         2.207268
 H        -0.906486         2.207403         1.457362
 H        -2.189362         3.906062         0.282367
 H        -2.382525         3.793660        -1.984571
 H        -2.655242         1.836882        -3.366027
 H        -0.960738         1.557146        -2.866107
 H        -1.075328        -1.339650        -1.114953
 H        -0.199351         0.122469        -1.834243
