19
Iteration:  2266
 O         0.192665         0.093342         0.960033
 C        -1.059202         0.415805         0.322452
 C        -2.148763         0.615800         1.203527
 C        -1.448357         1.912204         0.573522
 C        -2.089249         2.864430        -0.281020
 C        -2.377093         2.711638        -1.587338
 C        -1.856423         1.713484        -2.552552
 O        -2.055450         0.374742        -1.976649
 C        -1.102777        -0.048222        -1.074518
 H         0.839489         0.376167         0.307917
 H        -3.164566         0.307826         0.865478
 H        -1.924889         0.503033         2.299080
 H        -0.836946         2.430032         1.329005
 H        -2.664994         3.571275         0.289559
 H        -2.986629         3.482785        -2.052378
 H        -2.415963         1.602603        -3.520448
 H        -0.734503         1.810331        -2.723326
 H        -1.026155        -1.149434        -1.151847
 H        -0.115413         0.275358        -1.404596
