19
Iteration:    88charge 0 multiplicity 1
 O         0.215384         0.059347         0.896204
 C        -1.013146         0.418135         0.315567
 C        -2.314690         0.650584         1.062111
 C        -1.493586         1.833012         0.742528
 C        -2.095431         2.814857        -0.154229
 C        -2.153463         2.729273        -1.458876
 C        -2.297010         1.604783        -2.505817
 O        -1.939763         0.276760        -2.082060
 C        -0.782118         0.263121        -1.199874
 H        -0.001359        -0.693922         1.545580
 H        -3.138580         0.658092         0.336717
 H        -2.539965         0.180751         1.996320
 H        -0.824905         2.270680         1.496039
 H        -2.252442         3.844931         0.262850
 H        -2.168340         3.612534        -2.087300
 H        -3.342546         1.494285        -2.792971
 H        -1.643115         1.892747        -3.354411
 H        -0.279312        -0.663634        -1.398910
 H        -0.231686         1.175719        -1.430577
