19
Iteration:  1967charge 0 multiplicity 1
 O         0.285657         0.137872         0.963917
 C        -1.006536         0.537870         0.173414
 C        -2.166636         0.558861         1.128584
 C        -1.516565         1.896644         0.669404
 C        -2.206429         2.851484        -0.229786
 C        -2.218508         2.804986        -1.574460
 C        -1.938158         1.709076        -2.472731
 O        -2.068944         0.321750        -2.012185
 C        -1.144776        -0.200558        -1.085881
 H         0.802860         0.925328         1.089482
 H        -3.255944         0.640586         0.749577
 H        -2.076980         0.080115         2.125085
 H        -0.854550         2.436003         1.349020
 H        -2.189857         3.799841         0.265445
 H        -2.493255         3.736303        -2.118974
 H        -2.508044         1.706675        -3.306797
 H        -0.991781         1.799531        -2.929868
 H        -1.186229        -1.359858        -0.912140
 H        -0.159488        -0.101181        -1.623277
