19
Iteration:  3812
 O         0.287179         0.220947         0.901342
 C        -0.967432         0.434864         0.297006
 C        -2.232427         0.473495         1.144493
 C        -1.642486         1.790364         0.620189
 C        -2.148195         2.852710        -0.304194
 C        -2.233155         2.891114        -1.675500
 C        -1.869875         1.662044        -2.446260
 O        -2.116138         0.404549        -1.827827
 C        -1.065880        -0.172148        -1.113706
 H         0.848718         0.878351         0.348248
 H        -3.132092         0.178507         0.585550
 H        -2.321681         0.301533         2.228435
 H        -0.993253         2.274629         1.269477
 H        -2.273026         3.843080         0.272443
 H        -2.311831         3.837251        -2.162857
 H        -2.271352         1.766579        -3.449838
 H        -0.776255         1.694835        -2.554037
 H        -1.301202        -1.291211        -1.139983
 H        -0.111005         0.238905        -1.612034
