19
Iteration:  2558
 O         0.151523        -0.015745         1.181575
 C        -0.853792         0.501298         0.258652
 C        -2.261486         0.546557         0.852471
 C        -1.498283         1.918675         0.690325
 C        -1.992195         2.913933        -0.313922
 C        -2.280371         2.849536        -1.637203
 C        -2.286833         1.600688        -2.521897
 O        -2.050388         0.328200        -1.800869
 C        -0.772159         0.036747        -1.225125
 H         0.967778         0.579775         1.044355
 H        -3.278335         0.330792         0.366610
 H        -2.272683         0.249946         1.966369
 H        -0.889776         2.270117         1.662964
 H        -2.098114         3.964342         0.048361
 H        -2.607466         3.866841        -2.049768
 H        -3.343948         1.376773        -2.852760
 H        -1.757877         1.611900        -3.398764
 H        -0.810072        -1.072400        -1.070516
 H         0.003173         0.329991        -1.818031
