19
Iteration:  3018charge 0 multiplicity 1
 O         0.178979         0.179898         0.943034
 C        -0.972182         0.524085         0.243197
 C        -2.175871         0.522364         1.092995
 C        -1.540240         1.893740         0.671889
 C        -2.054125         2.934118        -0.209173
 C        -2.212038         2.783963        -1.540188
 C        -1.910745         1.609948        -2.460769
 O        -2.146268         0.255723        -1.997952
 C        -1.095004        -0.061862        -1.169264
 H         0.975052         0.781962         0.728552
 H        -3.195633         0.320869         0.822165
 H        -1.824083         0.154586         2.033927
 H        -1.038296         2.249634         1.567621
 H        -2.514446         3.822765         0.290986
 H        -2.502787         3.721194        -2.053733
 H        -2.599844         1.748894        -3.355713
 H        -0.843758         1.647230        -2.774632
 H        -1.162088        -1.147538        -0.955519
 H        -0.115565         0.172859        -1.750547
