19
Iteration:   483charge 0 multiplicity 1
 O         0.070655        -0.037850         0.885668
 C        -1.010423         0.523849         0.294345
 C        -2.277432         0.632636         1.115173
 C        -1.505953         1.957156         0.721675
 C        -1.867090         2.903855        -0.272869
 C        -2.367637         2.697717        -1.537446
 C        -2.295855         1.506766        -2.412882
 O        -1.842044         0.283268        -2.036996
 C        -0.777196         0.215114        -1.227938
 H         0.053619         0.189727         1.784381
 H        -3.289393         0.454816         0.706904
 H        -2.069864         0.267908         2.140209
 H        -1.056179         2.353183         1.581935
 H        -1.876449         3.971694        -0.022438
 H        -2.595117         3.599330        -2.034086
 H        -3.216531         1.247167        -2.884821
 H        -1.649218         1.829731        -3.188958
 H        -0.695069        -0.873668        -1.147363
 H         0.147875         0.702235        -1.464445
