19
Iteration:  3165charge 0 multiplicity 1
 O         0.224922         0.033293         0.987069
 C        -0.935643         0.566001         0.320136
 C        -2.230638         0.556846         1.044554
 C        -1.505167         1.874728         0.729865
 C        -2.076424         2.919235        -0.219901
 C        -2.292924         2.855757        -1.615972
 C        -2.006488         1.655789        -2.581378
 O        -2.086702         0.311876        -1.965780
 C        -1.020443        -0.065503        -1.138812
 H         0.981885         0.434079         0.587741
 H        -3.129400         0.103276         0.641507
 H        -2.002474         0.265077         2.060964
 H        -0.926285         2.264808         1.626223
 H        -2.489074         3.789461         0.286320
 H        -2.795345         3.671523        -2.002872
 H        -2.695895         1.558398        -3.313802
 H        -0.949835         1.842552        -2.917525
 H        -1.081110        -1.160746        -0.968503
 H        -0.127451         0.274968        -1.581861
