19
Iteration:  4430charge 0 multiplicity 1
 O         0.215387         0.162370         1.005837
 C        -0.939461         0.480284         0.345501
 C        -2.334397         0.384219         0.916817
 C        -1.729946         1.783966         0.641918
 C        -1.922597         2.896550        -0.307553
 C        -1.999828         2.798647        -1.628057
 C        -2.203442         1.574744        -2.429614
 O        -2.152499         0.366696        -1.769996
 C        -0.857464         0.143400        -1.199639
 H         0.946057         0.686685         0.492477
 H        -3.110123        -0.051119         0.321534
 H        -2.440995         0.239005         1.977409
 H        -1.361559         2.173941         1.623471
 H        -1.715220         3.811249         0.017975
 H        -2.073334         3.728322        -2.241330
 H        -3.262102         1.561651        -2.754336
 H        -1.413310         1.549314        -3.233971
 H        -0.403594        -0.893595        -1.322770
 H        -0.145376         0.906121        -1.495174
