19
Iteration:  3153
 O         0.231204         0.085618         0.985254
 C        -0.966720         0.500846         0.299517
 C        -2.225851         0.532224         1.137552
 C        -1.513528         1.915579         0.659348
 C        -1.985582         2.935324        -0.252527
 C        -2.395598         2.762397        -1.491253
 C        -1.944753         1.719989        -2.570069
 O        -2.086761         0.317331        -2.059452
 C        -1.005647        -0.095390        -1.090594
 H         1.031257         0.411920         0.403971
 H        -3.196646         0.288354         0.611590
 H        -2.280330         0.462936         2.222113
 H        -1.167854         2.327470         1.598788
 H        -2.312563         3.884214         0.234625
 H        -2.981386         3.500069        -1.909120
 H        -2.565379         1.848327        -3.423886
 H        -0.961477         1.804523        -3.069813
 H        -1.168262        -1.201670        -0.996340
 H        -0.069164        -0.105004        -1.566940
