19
Iteration:  3091charge 0 multiplicity 1
 O         0.184376        -0.094163         0.941180
 C        -0.977269         0.553593         0.239358
 C        -2.062168         0.709690         1.152935
 C        -1.433839         1.995090         0.639401
 C        -2.295611         2.807248        -0.265863
 C        -2.493581         2.726452        -1.602761
 C        -1.707859         1.693769        -2.469451
 O        -2.105981         0.418692        -1.971377
 C        -1.089352        -0.115378        -1.135686
 H         1.106831         0.229914         0.611956
 H        -3.088512         0.604816         0.902253
 H        -1.748716         0.406864         2.099032
 H        -0.811445         2.485623         1.471303
 H        -2.772893         3.473311         0.359547
 H        -2.980573         3.526939        -2.097625
 H        -2.007250         1.725461        -3.521082
 H        -0.656970         1.847230        -2.264325
 H        -1.295845        -1.151453        -0.999923
 H        -0.105884         0.131629        -1.557320
