19
Iteration:  4846charge 0 multiplicity 1
 O         0.264760         0.114862         1.145943
 C        -0.871545         0.450295         0.318349
 C        -2.266406         0.409932         0.913655
 C        -1.679093         1.725445         0.656634
 C        -1.860930         2.762892        -0.392139
 C        -2.109705         2.891625        -1.686123
 C        -2.274322         1.659183        -2.450688
 O        -2.174037         0.392037        -1.784325
 C        -0.904570         0.183896        -1.178874
 H         0.759078         0.876398         1.016485
 H        -3.094649         0.003721         0.222343
 H        -2.411119        -0.021613         1.997340
 H        -1.434995         2.165856         1.689211
 H        -1.698615         3.709209         0.072829
 H        -2.195021         3.876309        -2.314020
 H        -3.182433         1.568795        -3.097755
 H        -1.385639         1.695784        -3.244863
 H        -0.886168        -0.868939        -1.383595
 H        -0.136877         0.802227        -1.679800
