19
Iteration:    53
 O         0.037210        -0.018416         1.129090
 C        -0.878220         0.559942         0.223790
 C        -2.193079         0.548560         0.913567
 C        -1.425616         1.881612         0.723421
 C        -1.927916         2.901962        -0.235194
 C        -2.510304         2.655685        -1.450948
 C        -2.261575         1.631856        -2.492868
 O        -1.989964         0.377938        -1.952512
 C        -0.731648         0.182959        -1.274527
 H         0.187509        -0.983492         0.923911
 H        -3.110856         0.518523         0.347195
 H        -2.197228         0.009759         1.866299
 H        -0.940683         2.343775         1.556677
 H        -1.927842         3.897935         0.143767
 H        -2.768365         3.573901        -1.891057
 H        -3.011367         1.577203        -3.267120
 H        -1.374506         2.064474        -3.038039
 H        -0.420308        -0.873522        -1.350681
 H         0.131992         0.690312        -1.773715
