19
Iteration:  3083
 O         0.189182        -0.095998         0.935797
 C        -0.901534         0.528848         0.294636
 C        -2.117566         0.675864         1.196591
 C        -1.405607         1.931299         0.614931
 C        -2.269110         2.782146        -0.270980
 C        -2.502689         2.724786        -1.630045
 C        -1.729704         1.793333        -2.505207
 O        -2.137766         0.397971        -1.950931
 C        -1.064125        -0.071328        -1.091389
 H         0.835725         0.353293         0.309231
 H        -3.116141         0.604152         0.834604
 H        -1.839867         0.420405         2.234408
 H        -1.025063         2.664504         1.329856
 H        -2.732702         3.678247         0.209984
 H        -3.071591         3.565308        -2.168389
 H        -1.758587         1.755843        -3.719562
 H        -0.667048         1.952143        -2.337084
 H        -1.261589        -1.118645        -0.891045
 H        -0.122470        -0.171163        -1.640298
