19
Iteration:  4712
 O         0.106318        -0.116091         1.038168
 C        -0.861794         0.579093         0.244125
 C        -2.191235         0.653440         1.020254
 C        -1.385781         1.910858         0.625665
 C        -2.205868         2.869238        -0.223611
 C        -2.433377         2.804229        -1.579914
 C        -1.927559         1.655153        -2.508990
 O        -2.118262         0.327304        -1.901186
 C        -0.871854         0.036214        -1.187186
 H         0.930695         0.267104         0.910218
 H        -3.116746         0.454459         0.488611
 H        -2.117767         0.326885         2.055723
 H        -0.894568         2.453805         1.421294
 H        -2.527484         3.786114         0.371183
 H        -3.140249         3.453350        -1.987919
 H        -2.440710         1.630644        -3.440476
 H        -0.899059         1.796090        -2.624853
 H        -0.969549        -1.014797        -0.992827
 H         0.076919         0.283796        -1.853819
