19
Iteration:  4249
 O         0.317255         0.224311         0.861451
 C        -0.966734         0.521177         0.302190
 C        -2.169185         0.462734         1.178197
 C        -1.698155         1.849890         0.689244
 C        -2.223885         2.824676        -0.297918
 C        -2.112546         2.812283        -1.575006
 C        -1.784487         1.674496        -2.473639
 O        -2.164279         0.390886        -1.993278
 C        -1.154595        -0.124307        -1.065935
 H         0.906502         0.876444         0.445350
 H        -3.038973        -0.065293         0.811717
 H        -1.914679         0.310696         2.216722
 H        -1.238428         2.374021         1.517820
 H        -2.404429         3.941287         0.232396
 H        -2.504931         3.626583        -2.212155
 H        -2.253952         1.723786        -3.482456
 H        -0.691945         1.522985        -2.800776
 H        -1.613329        -1.088168        -0.799970
 H        -0.196246        -0.391021        -1.685323
