19
Iteration:  4285
 O         0.189657         0.102735         0.910034
 C        -1.061069         0.381282         0.298888
 C        -2.167048         0.681206         1.250807
 C        -1.495851         1.912853         0.647669
 C        -2.228199         2.787455        -0.279181
 C        -2.341323         2.785211        -1.575923
 C        -1.782955         1.687096        -2.497984
 O        -2.056984         0.393017        -1.973009
 C        -1.014710        -0.118828        -1.191500
 H         0.858838         0.663105         0.469298
 H        -3.193017         0.523127         0.866267
 H        -1.933744         0.322952         2.283368
 H        -0.774244         2.390128         1.253902
 H        -2.577599         3.749382         0.224862
 H        -2.923749         3.571858        -2.051542
 H        -2.342972         1.822120        -3.433779
 H        -0.699758         1.861151        -2.561021
 H        -1.277332        -1.299370        -1.104295
 H         0.015819        -0.013058        -1.553143
