19
Iteration:  1462
 O         0.161353         0.040846         1.047924
 C        -0.969390         0.458465         0.333628
 C        -2.198938         0.740737         1.101136
 C        -1.279505         1.970060         0.655737
 C        -2.092823         2.944620        -0.173757
 C        -2.499995         2.779904        -1.522204
 C        -1.918726         1.722864        -2.455004
 O        -2.031546         0.239029        -2.203899
 C        -1.033224        -0.162064        -1.155345
 H         0.970403         0.250662         0.456796
 H        -3.204313         0.635281         0.583175
 H        -2.272181         0.439669         2.217331
 H        -0.558464         2.185388         1.422295
 H        -2.683787         3.705186         0.320990
 H        -3.470688         3.301903        -1.955308
 H        -2.479775         1.769728        -3.528171
 H        -0.912294         1.835103        -2.664146
 H        -1.303793        -1.145086        -0.890520
 H        -0.061739         0.008913        -1.658216
