19
Iteration:  3305charge 0 multiplicity 1
 O         0.018686        -0.153178         1.075192
 C        -0.905680         0.508517         0.347619
 C        -2.303351         0.646674         0.850374
 C        -1.477831         1.953380         0.793398
 C        -1.790623         2.968294        -0.256326
 C        -2.296908         2.715040        -1.570430
 C        -2.468161         1.523409        -2.517121
 O        -1.967932         0.241321        -1.932494
 C        -0.657510         0.300338        -1.187797
 H         0.873678         0.416928         1.103587
 H        -3.054057         0.351843         0.160839
 H        -2.302709         0.051935         1.767854
 H        -1.202470         2.313037         1.821780
 H        -1.766766         4.009799         0.016243
 H        -2.507119         3.549943        -2.106994
 H        -3.597073         1.276629        -2.723056
 H        -1.843506         1.728952        -3.399770
 H        -0.280780        -0.715980        -1.456216
 H        -0.143692         1.127810        -1.754542
