19
Iteration:  3207
 O         0.171299         0.011839         1.066805
 C        -0.924541         0.428789         0.238630
 C        -2.252740         0.510338         1.012397
 C        -1.559093         1.779091         0.665848
 C        -1.993144         2.884162        -0.297009
 C        -2.166808         2.897943        -1.696444
 C        -2.181566         1.559211        -2.505417
 O        -2.102575         0.411398        -1.759770
 C        -0.856921         0.165722        -1.189395
 H         0.905700         0.716407         0.915163
 H        -3.116060         0.220022         0.414296
 H        -2.162330         0.079991         2.013364
 H        -1.154581         2.259642         1.533377
 H        -2.335896         3.790649         0.226850
 H        -2.597162         3.707642        -2.171177
 H        -3.109785         1.460161        -3.149085
 H        -1.297998         1.440827        -3.115546
 H        -0.747001        -0.948521        -1.360546
 H        -0.080549         0.716994        -1.731652
