19
Iteration:  2830
 O         0.167726         0.044853         1.092307
 C        -0.964087         0.405670         0.300598
 C        -2.296669         0.522905         0.866251
 C        -1.480142         1.826840         0.653033
 C        -1.844720         2.930271        -0.373670
 C        -2.299248         2.762415        -1.612435
 C        -2.283443         1.587720        -2.414499
 O        -2.079046         0.288455        -1.815264
 C        -0.832239         0.200384        -1.152183
 H         0.690133         0.875035         1.198725
 H        -3.136077         0.476909         0.127266
 H        -2.506948         0.106513         1.875138
 H        -1.170149         2.188150         1.699027
 H        -1.639811         3.934596        -0.034472
 H        -2.464940         3.710319        -2.171154
 H        -3.155985         1.403157        -3.000189
 H        -1.459399         1.868128        -3.250202
 H        -0.313704        -0.783279        -1.300120
 H        -0.072237         0.961312        -1.551505
