19
Iteration:  4147
 O         0.047148        -0.134043         1.109886
 C        -0.895327         0.559247         0.287057
 C        -2.252645         0.753207         1.062497
 C        -1.348999         1.939822         0.687367
 C        -2.072886         2.889106        -0.262412
 C        -2.420429         2.704367        -1.510788
 C        -2.134634         1.636561        -2.585946
 O        -2.014922         0.277582        -2.034143
 C        -0.773138         0.117808        -1.165080
 H         0.970116        -0.039030         0.844012
 H        -3.206605         0.613648         0.519065
 H        -2.166943         0.465852         2.138124
 H        -0.819510         2.375150         1.579425
 H        -2.395416         3.837902         0.161687
 H        -3.110498         3.341739        -2.074552
 H        -2.972304         1.432878        -3.261249
 H        -1.304978         1.839241        -3.183095
 H        -0.642984        -0.931751        -1.156667
 H         0.094826         0.481037        -1.705514
