19
Iteration:   480charge 0 multiplicity 1
 O         0.086198        -0.040541         0.893222
 C        -1.022100         0.504478         0.301227
 C        -2.301957         0.677418         1.122868
 C        -1.481457         1.927661         0.702712
 C        -1.879888         2.884617        -0.280759
 C        -2.408067         2.702241        -1.526239
 C        -2.285274         1.518946        -2.408777
 O        -1.830156         0.286567        -2.036260
 C        -0.775997         0.200779        -1.243548
 H         0.100037         0.208490         1.848666
 H        -3.295241         0.470882         0.731628
 H        -2.103999         0.291137         2.137575
 H        -1.005937         2.372479         1.587893
 H        -1.858512         3.899516         0.039947
 H        -2.542327         3.622429        -2.127359
 H        -3.251061         1.371047        -2.925651
 H        -1.699974         1.909898        -3.278496
 H        -0.592417        -0.900139        -1.049116
 H         0.201067         0.736423        -1.475519
