19
Iteration:  2471
 O         0.112212        -0.035763         1.095295
 C        -0.863259         0.600447         0.355066
 C        -2.253900         0.543023         0.951588
 C        -1.558860         1.887235         0.727188
 C        -1.842475         2.986002        -0.318274
 C        -2.240508         2.816133        -1.613918
 C        -2.366373         1.495685        -2.473469
 O        -2.071510         0.212229        -1.972458
 C        -0.763894         0.176703        -1.204292
 H         0.671625         0.616540         1.498073
 H        -2.863709         0.236823         0.090153
 H        -2.249924         0.182970         1.933779
 H        -1.117390         2.270631         1.705652
 H        -2.025472         3.954294         0.090925
 H        -2.668869         3.736105        -2.057005
 H        -3.481327         1.598878        -2.643937
 H        -1.641209         1.708999        -3.387289
 H        -0.470663        -0.919059        -1.187835
 H         0.053389         0.638555        -1.870583
