19
Iteration:  2154charge 0 multiplicity 1
 O         0.050506         0.037570         1.206286
 C        -0.859783         0.499223         0.265093
 C        -2.224363         0.501198         0.928157
 C        -1.468662         1.818983         0.705468
 C        -1.898643         2.845281        -0.348448
 C        -2.139546         2.815553        -1.681543
 C        -2.367467         1.592825        -2.521979
 O        -2.086774         0.323564        -1.863049
 C        -0.808127         0.189547        -1.169030
 H         0.906913         0.422343         0.893020
 H        -3.120194         0.230570         0.376395
 H        -2.026192         0.143159         1.892159
 H        -1.120885         2.298897         1.638668
 H        -2.224999         3.842943         0.008887
 H        -2.416599         3.823758        -2.208857
 H        -3.542461         1.751069        -2.591884
 H        -2.003877         1.679755        -3.483494
 H        -0.415277        -0.901890        -1.162110
 H        -0.070073         0.693890        -1.755941
