19
Iteration:  4529charge 0 multiplicity 1
 O         0.010909        -0.133618         1.064828
 C        -0.924643         0.604312         0.304090
 C        -2.274504         0.752300         1.006394
 C        -1.344701         1.935376         0.706440
 C        -1.960077         2.860729        -0.254994
 C        -2.463657         2.720762        -1.496776
 C        -2.149769         1.546307        -2.506973
 O        -1.963829         0.245840        -2.008340
 C        -0.829251         0.173238        -1.239522
 H         0.998007         0.155293         0.825936
 H        -3.162789         0.708927         0.406679
 H        -2.411523         0.440331         2.014445
 H        -0.905252         2.365479         1.588758
 H        -2.230093         3.727133         0.224893
 H        -3.142815         3.462037        -1.825506
 H        -2.903173         1.404642        -3.328789
 H        -1.174805         1.854898        -3.033914
 H        -0.386172        -0.851026        -1.218459
 H         0.106977         0.730592        -1.558240
