19
Iteration:  3936
 O         0.134176        -0.108804         1.143057
 C        -0.923097         0.532760         0.260684
 C        -2.171305         0.729047         1.054990
 C        -1.333261         1.986948         0.515126
 C        -2.185154         2.840852        -0.198533
 C        -2.487101         2.635889        -1.494688
 C        -1.864508         1.713431        -2.491013
 O        -2.036458         0.379070        -2.093297
 C        -1.024518        -0.017671        -1.144797
 H         0.986179         0.058038         0.756121
 H        -3.091356         0.459483         0.549347
 H        -2.119268         0.649061         2.123816
 H        -0.738937         2.572921         1.295603
 H        -2.724061         3.747450         0.361491
 H        -3.333219         3.228807        -1.865013
 H        -2.507109         1.847011        -3.390603
 H        -0.866489         2.036827        -2.692108
 H        -1.098741        -1.086454        -0.995042
 H        -0.017875         0.023264        -1.739722
