19
Iteration:  2256charge 0 multiplicity 1
 O         0.148518         0.112083         1.014296
 C        -1.010786         0.464910         0.335143
 C        -2.130488         0.601497         1.268769
 C        -1.432511         1.870594         0.650959
 C        -2.067492         2.861181        -0.287722
 C        -2.405184         2.741550        -1.593907
 C        -1.891460         1.663633        -2.598960
 O        -2.096564         0.381739        -2.081453
 C        -1.043588        -0.100176        -1.109972
 H         0.883469         0.593204         0.536974
 H        -3.195678         0.429014         0.921242
 H        -1.919977         0.321569         2.351274
 H        -0.729742         2.327097         1.388826
 H        -2.610049         3.717990         0.156169
 H        -2.812726         3.660276        -1.938872
 H        -2.476373         1.725996        -3.535364
 H        -0.830724         1.829891        -2.898526
 H        -1.021925        -1.184723        -1.116261
 H        -0.159301         0.357641        -1.542586
