19
Iteration:  4998
 O         0.218179         0.060926         0.948184
 C        -0.928277         0.528311         0.276095
 C        -2.262251         0.475254         1.043207
 C        -1.566600         1.874035         0.718651
 C        -2.098878         2.869803        -0.272931
 C        -2.324468         2.773880        -1.593387
 C        -1.936269         1.667827        -2.471777
 O        -2.041475         0.395098        -1.913910
 C        -1.005447         0.001360        -1.120661
 H         0.937318         0.392863         0.462133
 H        -3.197305         0.323847         0.453891
 H        -2.251666         0.034615         2.065218
 H        -1.067206         2.395240         1.537780
 H        -2.237209         3.876979         0.094056
 H        -2.777023         3.706360        -2.095585
 H        -2.662891         1.623240        -3.222009
 H        -0.861818         1.910476        -2.865323
 H        -1.028630        -1.044671        -1.014177
 H        -0.030445         0.118951        -1.688914
