19
Iteration:  4642
 O         0.216833         0.277530         0.854906
 C        -1.020749         0.521988         0.228420
 C        -2.194401         0.395283         1.207382
 C        -1.665487         1.805460         0.760816
 C        -2.178639         2.880709        -0.220321
 C        -2.062727         2.839019        -1.577905
 C        -1.841658         1.611353        -2.552949
 O        -2.119972         0.372411        -1.950281
 C        -1.053756        -0.076802        -1.123152
 H         0.858510         0.885433         0.494370
 H        -3.105402        -0.057909         0.742706
 H        -2.073799         0.132756         2.286564
 H        -0.951350         2.194464         1.547035
 H        -2.322790         3.887268         0.202339
 H        -2.340779         3.846529        -2.084022
 H        -2.699467         1.736059        -3.225887
 H        -0.891343         1.551169        -3.031855
 H        -1.525513        -1.186962        -1.069539
 H        -0.106035        -0.185431        -1.781818
