19
Iteration:  1927charge 0 multiplicity 1
 O         0.262921         0.053570         0.934999
 C        -0.999430         0.468847         0.304876
 C        -2.166797         0.596685         1.180756
 C        -1.473945         1.859462         0.610789
 C        -2.215810         2.820741        -0.308784
 C        -2.384658         2.777985        -1.650200
 C        -1.780304         1.709598        -2.497380
 O        -2.121316         0.411825        -1.915498
 C        -1.085713        -0.065937        -1.071223
 H         0.940236         0.235547         0.207201
 H        -3.179603         0.555415         0.750084
 H        -1.989156         0.332772         2.206833
 H        -0.784664         2.345432         1.358978
 H        -2.419288         3.855224         0.116202
 H        -3.215984         3.480344        -2.025915
 H        -2.165371         1.780665        -3.605816
 H        -0.650688         1.937429        -2.398053
 H        -1.285749        -1.103374        -1.020383
 H        -0.054534         0.044807        -1.504088
