19
Iteration:  1991
 O         0.160963         0.138499         0.912791
 C        -0.984674         0.537166         0.232673
 C        -2.170953         0.570201         1.120563
 C        -1.561300         1.879450         0.693984
 C        -2.062238         2.943687        -0.190001
 C        -2.147154         2.757894        -1.563382
 C        -1.970355         1.586712        -2.514165
 O        -2.150373         0.275690        -1.952712
 C        -0.993564        -0.021378        -1.174877
 H         0.812271         0.814835         0.949495
 H        -3.086588         0.197082         0.616682
 H        -2.109142         0.380184         2.209707
 H        -1.079519         2.160715         1.668641
 H        -2.373711         3.904319         0.322988
 H        -2.785332         3.610749        -2.089252
 H        -2.558339         1.662097        -3.385355
 H        -1.028171         1.555692        -2.965752
 H        -0.996726        -1.131463        -0.933357
 H        -0.098773         0.093913        -1.794039
