19
Iteration:  3710charge 0 multiplicity 1
 O         0.036836        -0.112453         1.240872
 C        -0.887911         0.520649         0.280908
 C        -2.270764         0.704017         0.790710
 C        -1.444775         1.865273         0.633960
 C        -1.844376         2.885780        -0.274775
 C        -2.366920         2.667812        -1.545489
 C        -2.422006         1.494804        -2.383546
 O        -1.914684         0.273062        -1.958456
 C        -0.775964         0.344760        -1.212098
 H         0.801220         0.194239         0.826960
 H        -3.144249         0.578331         0.157574
 H        -2.549386         0.384205         1.791835
 H        -0.974108         2.227072         1.655060
 H        -1.700895         3.892034         0.012081
 H        -2.640585         3.681717        -1.914753
 H        -3.330599         1.304728        -2.884572
 H        -1.788259         1.897288        -3.338921
 H        -0.233052        -0.685128        -1.304967
 H        -0.055528         1.065683        -1.762064
