19
Iteration:  2602
 O         0.259216         0.050967         0.989733
 C        -0.950309         0.514972         0.327799
 C        -2.242352         0.611089         1.063043
 C        -1.515996         1.877282         0.715955
 C        -2.038518         2.894822        -0.278985
 C        -2.333049         2.810889        -1.598602
 C        -2.005657         1.563039        -2.503853
 O        -2.134442         0.289154        -1.938496
 C        -0.953042        -0.001450        -1.221737
 H         0.799472         0.906920         1.024798
 H        -3.248511         0.530684         0.529199
 H        -2.341512         0.217222         2.158973
 H        -1.210857         2.336942         1.787902
 H        -1.862609         3.876806         0.222004
 H        -2.836056         3.622145        -2.217138
 H        -2.689074         1.688128        -3.377499
 H        -1.027917         1.672798        -2.899122
 H        -0.800159        -1.117964        -1.210913
 H        -0.127560         0.488629        -1.659833
