19
Iteration:  2207charge 0 multiplicity 1
 O         0.164927        -0.004346         0.929708
 C        -0.976605         0.542582         0.297737
 C        -2.297091         0.530870         1.027805
 C        -1.462761         1.894813         0.663597
 C        -2.038851         2.953189        -0.287106
 C        -2.241612         2.843606        -1.606687
 C        -2.111445         1.588603        -2.471309
 O        -2.015464         0.284232        -1.840928
 C        -0.902589         0.037147        -1.112503
 H         0.792944         0.733828         0.854271
 H        -3.083852         0.413299         0.260122
 H        -2.504317         0.165515         2.005820
 H        -0.915601         2.406299         1.462252
 H        -2.276366         3.959744         0.129836
 H        -2.867964         3.695888        -2.022639
 H        -3.019006         1.489434        -3.251289
 H        -1.203476         1.663285        -3.235442
 H        -0.806970        -1.066083        -0.908140
 H         0.052954         0.285314        -1.626648
