19
Iteration:  1013
 O         0.171107         0.008156         1.055582
 C        -0.863667         0.619022         0.292795
 C        -2.204519         0.549996         0.982341
 C        -1.528414         1.917268         0.673953
 C        -2.026196         2.940530        -0.194923
 C        -2.265789         2.833041        -1.553551
 C        -2.105958         1.612151        -2.517633
 O        -2.102349         0.258544        -1.958195
 C        -0.982301         0.003371        -1.191051
 H         0.940018         0.011736         0.519404
 H        -3.052098         0.058451         0.496621
 H        -1.984532         0.401901         2.043115
 H        -1.094292         2.196509         1.679071
 H        -2.194383         3.995770         0.153015
 H        -2.785030         3.698242        -2.082002
 H        -2.917087         1.583627        -3.212775
 H        -1.138728         1.742279        -3.101616
 H        -0.929085        -1.087299        -0.973799
 H        -0.040142         0.346873        -1.755926
