19
Iteration:  2834
 O         0.175200         0.036060         1.110709
 C        -0.988252         0.429454         0.322576
 C        -2.303564         0.537631         0.877210
 C        -1.467765         1.853954         0.641708
 C        -1.829207         2.879993        -0.346563
 C        -2.296959         2.757335        -1.601265
 C        -2.315119         1.596446        -2.431569
 O        -2.046395         0.301676        -1.845479
 C        -0.822965         0.186265        -1.189978
 H         0.613433         0.904736         1.291698
 H        -3.035232         0.413888         0.157821
 H        -2.532436         0.148072         1.827018
 H        -1.122426         2.259558         1.599891
 H        -1.745918         3.916845        -0.025911
 H        -2.320560         3.633084        -2.179467
 H        -3.299525         1.432285        -2.942211
 H        -1.537009         1.669134        -3.101867
 H        -0.333290        -0.790597        -1.388347
 H        -0.275651         1.025457        -1.518480
