19
Iteration:  3111charge 0 multiplicity 1
 O         0.099877         0.010590         0.921610
 C        -0.958439         0.521418         0.227473
 C        -2.113190         0.719927         1.210938
 C        -1.419815         1.923678         0.558067
 C        -2.273239         2.901383        -0.192880
 C        -2.350901         2.785190        -1.498876
 C        -1.801492         1.740489        -2.416460
 O        -2.063699         0.292819        -2.038061
 C        -1.011732        -0.178602        -1.182549
 H         0.843292         0.473797         0.521848
 H        -3.111763         0.572303         0.738487
 H        -1.927679         0.488428         2.226541
 H        -0.701299         2.505740         1.243814
 H        -2.935909         3.575933         0.359828
 H        -3.159751         3.208436        -1.985164
 H        -2.330656         1.777568        -3.272335
 H        -0.668068         1.868373        -2.592270
 H        -1.305173        -1.239131        -0.930129
 H         0.046395        -0.128501        -1.698605
