19
Iteration:  2030charge 0 multiplicity 1
 O         0.187955        -0.012654         1.065102
 C        -0.888011         0.494041         0.346470
 C        -2.230501         0.563360         1.016989
 C        -1.529449         1.827669         0.690302
 C        -2.037350         2.870513        -0.316195
 C        -2.316486         2.854081        -1.674187
 C        -2.231127         1.601638        -2.612625
 O        -2.028578         0.391337        -1.789625
 C        -0.851182         0.063266        -1.132276
 H         1.000734         0.001958         0.505880
 H        -3.062764         0.445493         0.264775
 H        -2.524534         0.422752         2.060189
 H        -1.065900         2.322692         1.510194
 H        -1.909213         3.873478         0.016499
 H        -2.649086         3.708823        -2.138315
 H        -3.141370         1.402871        -3.302504
 H        -1.259694         1.857380        -3.207959
 H        -0.785164        -1.027692        -1.228116
 H         0.041348         0.555667        -1.475536
