19
Iteration:  1240charge 0 multiplicity 1
 O        -0.003247        -0.033738         1.033636
 C        -0.888133         0.615741         0.182327
 C        -2.187354         0.682050         0.981771
 C        -1.423360         1.980531         0.784303
 C        -1.988197         2.875993        -0.238407
 C        -2.390781         2.791032        -1.532942
 C        -2.161178         1.633064        -2.523541
 O        -2.021647         0.225737        -1.921753
 C        -0.796684        -0.051431        -1.196601
 H         0.965072         0.215971         0.772344
 H        -3.203280         0.601181         0.650900
 H        -2.084246         0.275191         1.998017
 H        -0.805435         2.534915         1.563361
 H        -2.262346         3.948123         0.035428
 H        -3.001366         3.568689        -1.968826
 H        -3.076485         1.365956        -3.189188
 H        -1.317743         2.008085        -3.158031
 H        -0.751872        -1.084496        -0.988459
 H         0.146875         0.085354        -1.763232
