19
Iteration:  1267charge 0 multiplicity 1
 O         0.061979        -0.151408         1.201920
 C        -0.878681         0.489060         0.317686
 C        -2.239446         0.707258         0.876381
 C        -1.306458         1.902547         0.595970
 C        -1.987440         2.913866        -0.347751
 C        -2.405291         2.745685        -1.560907
 C        -2.282676         1.577659        -2.410780
 O        -2.012803         0.280306        -1.929107
 C        -0.779163         0.254161        -1.159649
 H         0.951374        -0.330836         0.710451
 H        -3.192326         0.674029         0.291600
 H        -2.531356         0.381412         1.875938
 H        -0.808600         2.420717         1.371804
 H        -2.213270         3.854233         0.071755
 H        -2.979482         3.511593        -2.164716
 H        -3.218935         1.392656        -2.839785
 H        -1.622725         1.953871        -3.225869
 H        -0.510853        -0.870305        -1.256017
 H         0.077572         0.779462        -1.698057
