19
Iteration:  3987charge 0 multiplicity 1
 O         0.169309         0.058890         0.992713
 C        -0.922886         0.523647         0.255182
 C        -2.251097         0.491308         0.985029
 C        -1.524262         1.828937         0.682616
 C        -2.090455         2.949919        -0.264126
 C        -2.190171         2.847127        -1.577874
 C        -2.084615         1.586138        -2.502802
 O        -2.073759         0.322929        -1.881175
 C        -0.932294         0.025332        -1.127664
 H         0.911633         0.612975         0.857736
 H        -3.214006         0.235512         0.508808
 H        -2.193501         0.242578         2.051940
 H        -1.256275         2.284194         1.641611
 H        -2.397386         3.910596         0.315139
 H        -2.160369         3.770187        -2.304281
 H        -3.031317         1.610428        -3.072010
 H        -1.279553         1.904803        -3.202538
 H        -0.711226        -1.126077        -1.091608
 H        -0.062995         0.332519        -1.668955
