19
Iteration:  4691
 O         0.172247         0.064713         0.972576
 C        -0.951868         0.525545         0.270242
 C        -2.185184         0.520023         1.097033
 C        -1.504057         1.910994         0.668712
 C        -2.114391         2.855914        -0.267361
 C        -2.325630         2.737122        -1.595292
 C        -1.915458         1.704424        -2.499379
 O        -2.082436         0.414737        -1.912346
 C        -1.009500        -0.096965        -1.130233
 H         0.938002         0.536524         0.478363
 H        -3.096290         0.356246         0.522714
 H        -2.175124         0.212253         2.161886
 H        -0.982022         2.334745         1.530459
 H        -2.545498         3.731571         0.270923
 H        -2.787449         3.537916        -2.074990
 H        -2.579488         1.732055        -3.372501
 H        -0.821029         1.914064        -2.810503
 H        -1.091506        -1.133551        -1.251514
 H        -0.040671         0.142354        -1.717075
