19
Iteration:  4777
 O         0.074295         0.004501         1.094106
 C        -0.997974         0.459323         0.316273
 C        -2.196859         0.660735         1.012880
 C        -1.450657         1.900605         0.746225
 C        -1.992751         2.905100        -0.207510
 C        -2.317273         2.770899        -1.529330
 C        -2.210363         1.581862        -2.503109
 O        -1.951156         0.278155        -2.108838
 C        -0.857196         0.109113        -1.202100
 H         0.925670         0.330940         0.705369
 H        -3.150293         0.471173         0.511548
 H        -2.157056         0.164952         1.978112
 H        -0.861475         2.214207         1.623876
 H        -2.138056         3.960854         0.169368
 H        -2.804898         3.545088        -2.044071
 H        -3.126155         1.576149        -3.025706
 H        -1.422495         1.829180        -3.322211
 H        -0.759952        -0.982706        -1.108589
 H        -0.012991         0.630520        -1.627801
