19
Iteration:  2843charge 0 multiplicity 1
 O         0.159479         0.019901         1.136915
 C        -0.932790         0.502317         0.347040
 C        -2.348562         0.578924         0.914251
 C        -1.471784         1.858375         0.661315
 C        -1.828661         2.818150        -0.301031
 C        -2.243084         2.774896        -1.568559
 C        -2.393149         1.525344        -2.491239
 O        -2.035634         0.294786        -1.916780
 C        -0.796156         0.210136        -1.240164
 H         0.541311         0.823304         1.567033
 H        -3.046857         0.304778         0.197375
 H        -2.531457         0.343383         1.940173
 H        -0.906533         2.384609         1.529665
 H        -1.861455         3.779418         0.135704
 H        -2.270023         3.659864        -2.107839
 H        -3.402136         1.511542        -2.873337
 H        -1.678971         1.646796        -3.402452
 H        -0.360901        -0.790635        -1.557942
 H        -0.107790         0.992748        -1.582197
