19
Iteration:  1029
 O         0.247823        -0.045801         1.073298
 C        -0.945937         0.435749         0.328822
 C        -2.224488         0.684215         1.078976
 C        -1.358611         1.934515         0.674743
 C        -2.133267         2.907193        -0.252844
 C        -2.386647         2.785377        -1.593330
 C        -2.024346         1.660845        -2.535554
 O        -2.140120         0.321144        -1.991454
 C        -0.925271        -0.009980        -1.175240
 H         1.049768         0.196189         0.542023
 H        -3.077033         0.719092         0.400938
 H        -2.496538         0.315249         2.070619
 H        -0.863879         2.483586         1.459848
 H        -2.543645         3.671278         0.366442
 H        -2.925966         3.611248        -1.977980
 H        -2.799633         1.689462        -3.356512
 H        -1.028847         1.780993        -2.944996
 H        -0.839039        -1.094502        -1.313943
 H        -0.029878         0.361373        -1.635497
