19
Iteration:  4497
 O         0.082456        -0.110108         1.031713
 C        -0.943713         0.525081         0.273450
 C        -2.283409         0.632949         1.068209
 C        -1.503074         1.921642         0.697017
 C        -1.991133         2.908066        -0.267303
 C        -2.262413         2.846931        -1.644187
 C        -2.300996         1.557991        -2.470791
 O        -1.921198         0.302535        -1.962300
 C        -0.754872         0.108550        -1.179410
 H         0.761415         0.479828         1.231413
 H        -3.164059         0.425759         0.481801
 H        -2.371909         0.367665         2.100089
 H        -0.994177         2.301574         1.557397
 H        -1.999908         3.762618         0.217803
 H        -2.656774         3.660617        -2.180892
 H        -3.356367         1.336818        -2.767596
 H        -1.568644         1.724804        -3.329301
 H        -0.563912        -1.009457        -1.324915
 H        -0.001376         0.769015        -1.598546
