19
Iteration:  2679
 O         0.210548         0.099803         0.974203
 C        -0.950152         0.487953         0.288195
 C        -2.124668         0.637804         1.167833
 C        -1.433565         1.895382         0.548871
 C        -2.176747         2.780811        -0.330032
 C        -2.443991         2.807577        -1.637403
 C        -1.821418         1.732425        -2.402597
 O        -2.076194         0.376711        -1.950936
 C        -1.147399        -0.126034        -1.133398
 H         0.961582         0.123893         0.331248
 H        -3.119221         0.298969         0.746295
 H        -1.973480         0.454300         2.271333
 H        -0.856880         2.483304         1.388580
 H        -2.535452         3.577395         0.322690
 H        -3.291920         3.375694        -2.001596
 H        -1.880662         1.747417        -3.514545
 H        -0.673807         1.851479        -2.062885
 H        -1.391850        -1.233295        -1.047797
 H        -0.031922         0.030241        -1.605339
