19
Iteration:  3880charge 0 multiplicity 1
 O         0.201987         0.093366         0.864505
 C        -1.040513         0.445046         0.318641
 C        -2.143140         0.669731         1.309305
 C        -1.512270         1.917313         0.635501
 C        -2.188717         2.891715        -0.245523
 C        -2.375984         2.755698        -1.576646
 C        -1.697024         1.703014        -2.433100
 O        -2.055656         0.374395        -2.114616
 C        -1.114952        -0.195894        -1.151055
 H         0.896887         0.397517         0.348089
 H        -3.166429         0.417490         0.993803
 H        -2.032219         0.677620         2.388517
 H        -0.758396         2.342783         1.353265
 H        -3.013970         3.529099         0.352564
 H        -3.249804         3.296413        -2.060971
 H        -1.984917         1.678427        -3.510975
 H        -0.655489         1.865929        -2.440692
 H        -1.201484        -1.262866        -1.071777
 H        -0.119843         0.254987        -1.422420
