19
Iteration:   612charge 0 multiplicity 1
 O         0.147176         0.214520         0.870386
 C        -1.019971         0.559567         0.232414
 C        -2.287407         0.632116         1.047680
 C        -1.471579         1.832827         0.687912
 C        -2.029025         2.864129        -0.177659
 C        -2.257894         2.728882        -1.489095
 C        -1.999746         1.559959        -2.492642
 O        -2.092056         0.295370        -1.919777
 C        -0.884262         0.062400        -1.130597
 H         0.260222        -0.772213         0.754175
 H        -3.208300         0.422542         0.506305
 H        -2.138842         0.098618         1.996799
 H        -0.887978         2.233543         1.475406
 H        -2.297576         3.773239         0.352402
 H        -2.563808         3.573646        -2.038283
 H        -2.810797         1.416857        -3.226667
 H        -1.062072         1.627298        -3.101170
 H        -0.643938        -0.996903        -1.269159
 H         0.052959         0.517447        -1.572199
