19
Iteration:  2607charge 0 multiplicity 1
 O         0.237259         0.056346         0.968284
 C        -0.924945         0.502335         0.319940
 C        -2.213832         0.603911         1.119367
 C        -1.545482         1.927298         0.752022
 C        -2.047768         2.914058        -0.268292
 C        -2.285697         2.747000        -1.606362
 C        -2.015075         1.590956        -2.503514
 O        -2.115922         0.312955        -1.981064
 C        -1.002102        -0.022527        -1.196376
 H         0.855203         0.793788         1.000169
 H        -3.076950         0.492077         0.526897
 H        -2.297783         0.172714         2.056207
 H        -1.282150         2.306728         1.654406
 H        -2.114012         3.942179         0.098725
 H        -2.815912         3.526258        -2.080504
 H        -2.688265         1.543106        -3.382332
 H        -0.927925         1.682562        -2.907800
 H        -0.886090        -1.082784        -1.196949
 H        -0.104270         0.473195        -1.742773
