19
Iteration:   885charge 0 multiplicity 1
 O         0.177681        -0.093332         1.061209
 C        -0.953601         0.538881         0.369612
 C        -2.350017         0.753691         0.820007
 C        -1.371879         1.942931         0.703695
 C        -1.847116         2.942766        -0.237444
 C        -2.390572         2.740280        -1.476320
 C        -2.377977         1.509880        -2.478566
 O        -1.976584         0.198762        -2.018342
 C        -0.796967         0.145298        -1.185182
 H         0.665740         0.598878         1.637002
 H        -3.056992         0.585217         0.031769
 H        -2.573628         0.303092         1.796112
 H        -0.813252         2.217330         1.651879
 H        -1.964871         4.022249         0.195914
 H        -2.765580         3.696646        -1.921558
 H        -3.463898         1.291061        -2.896171
 H        -1.654084         1.668630        -3.301141
 H        -0.294495        -0.895900        -1.254628
 H        -0.048862         0.848846        -1.593094
