19
Iteration:  1330
 O         0.188006         0.039518         1.035343
 C        -0.935328         0.525542         0.279618
 C        -2.311829         0.543200         0.878220
 C        -1.617637         1.874567         0.790265
 C        -1.900293         2.947786        -0.279220
 C        -1.957078         2.775146        -1.601275
 C        -2.406518         1.523513        -2.446609
 O        -2.105921         0.204942        -1.904549
 C        -0.812721         0.217920        -1.202877
 H         0.882314         0.763820         1.280778
 H        -3.093383         0.412830         0.104420
 H        -2.395380         0.244182         1.918868
 H        -1.286857         2.066072         1.814634
 H        -1.858127         3.964107         0.119607
 H        -1.896793         3.696974        -2.145167
 H        -3.553367         1.534174        -2.343786
 H        -2.191727         1.378707        -3.581463
 H        -0.385940        -0.744877        -1.299927
 H        -0.049941         0.791903        -1.753634
