19
Iteration:   616
 O         0.150063         0.195107         0.894489
 C        -1.022819         0.537475         0.204431
 C        -2.279518         0.623732         1.044576
 C        -1.473588         1.842734         0.691420
 C        -2.017811         2.912362        -0.183943
 C        -2.307590         2.734722        -1.473813
 C        -2.026004         1.539236        -2.495639
 O        -2.035808         0.272353        -1.911739
 C        -0.911883         0.053014        -1.157082
 H         0.317374        -0.703143         0.624766
 H        -3.260974         0.484171         0.590005
 H        -2.112483         0.237046         2.062823
 H        -0.828903         2.245025         1.545396
 H        -2.282866         3.892464         0.398895
 H        -2.603542         3.666261        -2.043200
 H        -2.644293         1.487228        -3.404225
 H        -0.953926         1.706738        -2.991252
 H        -0.820709        -1.052894        -1.315271
 H         0.015968         0.564241        -1.527790
