19
Iteration:  4621
 O         0.251898         0.195864         0.880749
 C        -0.964424         0.566135         0.275112
 C        -2.198347         0.427343         1.113571
 C        -1.632752         1.873972         0.713392
 C        -2.116325         2.771042        -0.278117
 C        -2.093127         2.768507        -1.595622
 C        -1.870981         1.670958        -2.499123
 O        -2.225425         0.380457        -1.935984
 C        -1.067682        -0.038841        -1.071003
 H         0.891247         0.880400         0.723484
 H        -3.129247         0.076364         0.623351
 H        -2.094294         0.088049         2.157869
 H        -1.275119         2.274059         1.680276
 H        -2.597586         3.711751         0.165498
 H        -2.394809         3.787514        -2.035053
 H        -2.397243         1.821543        -3.447424
 H        -0.746680         1.590597        -2.733104
 H        -0.973681        -1.224041        -1.141150
 H        -0.202423         0.225694        -1.787409
