19
Iteration:   852charge 0 multiplicity 1
 O        -0.012421        -0.025623         1.115225
 C        -0.987989         0.580935         0.185139
 C        -2.214908         0.646170         0.999718
 C        -1.364400         1.925000         0.656608
 C        -1.890095         2.927085        -0.265047
 C        -2.451951         2.722929        -1.512623
 C        -2.255131         1.544884        -2.492356
 O        -1.965669         0.266349        -1.940226
 C        -0.761827         0.087232        -1.206232
 H         0.874461         0.426839         1.129741
 H        -3.209253         0.362239         0.657251
 H        -1.950604         0.145936         1.940465
 H        -0.626989         2.304222         1.426604
 H        -1.960486         3.971010         0.215795
 H        -2.823791         3.707453        -1.903738
 H        -3.167096         1.349372        -3.216645
 H        -1.582654         1.951617        -3.251155
 H        -0.638852        -1.058037        -1.280340
 H         0.031279         0.690013        -1.674775
