19
Iteration:  2445
 O         0.132644         0.057808         1.187190
 C        -0.892672         0.481174         0.257593
 C        -2.237528         0.535639         0.812886
 C        -1.462771         1.830734         0.603478
 C        -1.952170         2.918069        -0.274393
 C        -2.321841         2.814165        -1.587179
 C        -2.324950         1.538081        -2.448749
 O        -2.062445         0.367464        -1.852140
 C        -0.756615         0.054534        -1.164211
 H         0.766715         0.748314         1.092691
 H        -3.135136         0.410091         0.216131
 H        -2.136170         0.159016         1.865432
 H        -1.109519         2.220329         1.520175
 H        -1.933221         3.985990         0.074298
 H        -2.296947         3.768284        -2.118481
 H        -3.286920         1.512030        -2.959395
 H        -1.580092         1.756724        -3.236274
 H        -0.788732        -1.026614        -1.239336
 H        -0.055394         0.507227        -1.737129
