19
Iteration:   355
 O         0.234139         0.390048         0.904926
 C        -1.072921         0.513582         0.312033
 C        -2.124644         0.351125         1.238186
 C        -1.685294         1.779709         0.749214
 C        -2.034945         2.807185        -0.249202
 C        -2.112875         2.765272        -1.567971
 C        -1.976804         1.686981        -2.631537
 O        -2.076371         0.410427        -2.027448
 C        -1.076859        -0.033048        -1.148263
 H         0.452990        -0.588587         0.802125
 H        -3.091505        -0.087038         1.045112
 H        -1.854408         0.146000         2.280440
 H        -1.090547         2.188419         1.521319
 H        -2.152450         3.820883         0.140132
 H        -2.396404         3.694336        -2.017554
 H        -2.791784         1.725296        -3.398433
 H        -1.084526         2.005518        -3.150048
 H        -1.341291        -1.092391        -1.033293
 H         0.022624        -0.133007        -1.442685
