19
Iteration:  4552
 O         0.063400        -0.069330         1.214637
 C        -0.920216         0.502744         0.250720
 C        -2.173615         0.713807         0.939426
 C        -1.355440         1.994119         0.656820
 C        -2.089976         2.931143        -0.212687
 C        -2.449485         2.692259        -1.497961
 C        -2.099637         1.658875        -2.514580
 O        -2.054090         0.280634        -2.035586
 C        -0.832799         0.026987        -1.221329
 H         0.895394        -0.053466         0.797417
 H        -3.144026         0.577081         0.453874
 H        -2.113113         0.234697         1.926300
 H        -0.728246         2.359393         1.464514
 H        -2.505964         3.731173         0.219277
 H        -3.001056         3.451685        -1.980308
 H        -2.841591         1.636501        -3.353460
 H        -1.099684         1.948464        -3.011411
 H        -0.511451        -1.090978        -1.298662
 H         0.134588         0.501938        -1.658142
