19
Iteration:  2507charge 0 multiplicity 1
 O         0.090603         0.004299         0.964306
 C        -0.990630         0.503469         0.300600
 C        -2.348436         0.686029         1.054192
 C        -1.520371         1.858370         0.733320
 C        -1.846302         2.802278        -0.288951
 C        -2.217665         2.723194        -1.610339
 C        -2.335118         1.437225        -2.453212
 O        -2.039658         0.269853        -1.897664
 C        -0.670475         0.325695        -1.166558
 H         0.881120         0.423975         0.694445
 H        -3.233276         0.529691         0.380517
 H        -2.707419         0.117333         1.980262
 H        -0.947324         2.324001         1.585822
 H        -1.804247         3.856726         0.130530
 H        -2.345055         3.666708        -2.153721
 H        -3.345419         1.296810        -2.940475
 H        -1.730570         1.625145        -3.474346
 H        -0.199793        -0.666865        -1.371338
 H        -0.050775         1.314014        -1.497552
