19
Iteration:  2383charge 0 multiplicity 1
 O         0.155143        -0.011807         0.925289
 C        -0.951362         0.602405         0.317417
 C        -2.115239         0.551631         1.179672
 C        -1.590277         1.990085         0.764058
 C        -2.179722         2.846077        -0.262274
 C        -2.238262         2.784821        -1.641054
 C        -1.985937         1.619628        -2.532983
 O        -2.056930         0.340598        -2.029986
 C        -0.987747        -0.028639        -1.111656
 H         0.843460         0.500524         0.559939
 H        -3.070556         0.389351         0.934270
 H        -1.828459         0.252577         2.148508
 H        -1.150982         2.464328         1.579192
 H        -2.333014         3.779357         0.180446
 H        -2.625190         3.664102        -2.137279
 H        -2.781728         1.515595        -3.302445
 H        -1.045279         1.687299        -3.061380
 H        -0.911007        -1.147069        -1.067765
 H         0.094243         0.159720        -1.497064
