19
Iteration:  1250
 O        -0.020009        -0.073604         1.095310
 C        -0.905107         0.610363         0.235669
 C        -2.177372         0.704669         0.927862
 C        -1.364751         2.027162         0.720169
 C        -1.975634         2.910240        -0.249666
 C        -2.410789         2.712179        -1.515765
 C        -2.247588         1.566875        -2.592402
 O        -1.957267         0.307858        -1.871208
 C        -0.781989        -0.005080        -1.207690
 H         0.925926        -0.246611         0.729926
 H        -3.070837         0.521284         0.330295
 H        -2.170974         0.274910         1.943551
 H        -0.858191         2.244617         1.688515
 H        -2.267270         3.872397         0.264527
 H        -2.966115         3.652191        -1.712569
 H        -3.242806         1.367875        -3.169111
 H        -1.457526         1.766561        -3.361584
 H        -0.759714        -1.077910        -1.202940
 H         0.049026         0.479746        -1.686429
