19
Iteration:  1624
 O         0.126293        -0.122127         0.961753
 C        -0.958342         0.546323         0.311324
 C        -2.254510         0.564923         0.950306
 C        -1.483739         1.911329         0.672270
 C        -1.944150         2.945026        -0.314950
 C        -2.283433         2.788341        -1.657702
 C        -2.195164         1.578376        -2.507547
 O        -2.040864         0.322519        -1.781312
 C        -0.818225         0.172107        -1.115295
 H         0.876014         0.555513         1.104918
 H        -3.171342         0.199132         0.423582
 H        -2.297125         0.218615         2.005517
 H        -0.992329         2.314840         1.529260
 H        -2.361899         3.842765         0.175722
 H        -2.822204         3.713413        -2.098955
 H        -3.120614         1.625641        -2.989669
 H        -1.388977         1.613179        -3.242941
 H        -0.675554        -0.950448        -0.831816
 H         0.025977         0.498035        -1.799444
