19
Iteration:  3271
 O         0.017208         0.016137         1.033828
 C        -0.983349         0.514969         0.233038
 C        -2.317693         0.596869         0.865247
 C        -1.468108         1.880009         0.683608
 C        -1.960937         2.969885        -0.185303
 C        -2.055618         2.786580        -1.543929
 C        -2.415112         1.486159        -2.374778
 O        -1.951310         0.221878        -1.921450
 C        -0.728285         0.185703        -1.216130
 H         0.799354         0.571596         0.880048
 H        -3.186272         0.418542         0.255400
 H        -2.220314         0.105752         1.858057
 H        -1.039941         2.088979         1.613781
 H        -2.037844         4.004128         0.175005
 H        -2.134615         3.733454        -2.054308
 H        -3.592711         1.408592        -2.461895
 H        -2.186792         1.725281        -3.440507
 H        -0.279304        -0.842300        -1.332413
 H         0.159581         0.847219        -1.606428
