19
Iteration:  2190
 O         0.206533         0.020594         1.028808
 C        -0.919229         0.486541         0.293882
 C        -2.330177         0.608250         0.865151
 C        -1.569872         1.843123         0.669245
 C        -1.865609         2.890238        -0.340389
 C        -2.361882         2.775520        -1.585532
 C        -2.140993         1.591781        -2.444069
 O        -2.133787         0.339393        -1.799627
 C        -0.821237         0.078952        -1.134657
 H         1.003721         0.529970         0.720054
 H        -3.237432         0.309241         0.391537
 H        -2.300126         0.405159         1.944756
 H        -1.276495         2.241897         1.630119
 H        -1.859833         3.837233         0.147307
 H        -2.477915         3.629540        -2.249285
 H        -2.859435         1.432538        -3.166754
 H        -1.206457         1.732976        -2.919344
 H        -0.617948        -0.994589        -1.250438
 H        -0.043574         0.738150        -1.569391
