19
Iteration:   912charge 0 multiplicity 1
 O         0.142943        -0.108566         0.965372
 C        -0.932653         0.556269         0.331818
 C        -2.306400         0.557900         0.899919
 C        -1.522226         1.937040         0.686906
 C        -1.974251         2.913112        -0.321564
 C        -2.150531         2.814006        -1.660147
 C        -2.348521         1.526323        -2.329219
 O        -2.007736         0.279839        -1.822033
 C        -0.748359         0.201153        -1.245706
 H         0.549360         0.452640         1.712973
 H        -3.140116         0.319699         0.203556
 H        -2.420239         0.357252         1.967219
 H        -1.217100         2.290802         1.632050
 H        -1.942469         3.907182        -0.004316
 H        -2.488712         3.687262        -2.186818
 H        -3.382047         1.423131        -2.394122
 H        -1.852861         1.497717        -3.307352
 H        -0.286945        -0.741257        -1.329853
 H         0.003655         0.905875        -1.709474
