19
Iteration:  3485charge 0 multiplicity 1
 O         0.224588         0.023413         0.838420
 C        -0.971095         0.507305         0.296349
 C        -2.162873         0.614929         1.206639
 C        -1.431416         1.947460         0.606083
 C        -2.210725         2.866986        -0.262677
 C        -2.474872         2.664771        -1.589188
 C        -1.654587         1.765359        -2.405269
 O        -2.035196         0.388896        -2.061243
 C        -1.204027        -0.108389        -1.039312
 H         0.859769         0.308157         0.147005
 H        -3.166075         0.445384         0.790393
 H        -2.008972         0.539296         2.285810
 H        -0.818955         2.263224         1.348937
 H        -2.895331         3.479001         0.354529
 H        -3.170431         3.410035        -2.005871
 H        -1.908266         1.919538        -3.459937
 H        -0.620687         2.039123        -2.109463
 H        -1.641931        -1.075781        -0.857451
 H        -0.157461        -0.105903        -1.467454
