19
Iteration:  3772charge 0 multiplicity 1
 O         0.205512        -0.004613         1.079824
 C        -0.954720         0.558725         0.301154
 C        -2.195221         0.584447         1.058014
 C        -1.524199         1.942165         0.745543
 C        -2.112525         2.846061        -0.235278
 C        -2.227311         2.791785        -1.610284
 C        -2.088266         1.633922        -2.574956
 O        -2.083811         0.265683        -1.978013
 C        -0.929581         0.028700        -1.201378
 H         0.999840         0.468088         0.935210
 H        -2.993540         0.508223         0.309600
 H        -2.271421         0.193564         2.080172
 H        -0.987108         2.497299         1.636491
 H        -2.550449         3.890038         0.087870
 H        -2.593075         3.829117        -2.014216
 H        -3.035136         1.519988        -3.239498
 H        -1.103624         1.879637        -3.096833
 H        -0.808556        -1.021842        -1.153957
 H        -0.037521         0.340722        -1.741324
