19
Iteration:  4686charge 0 multiplicity 1
 O         0.208616         0.111777         0.950165
 C        -0.976264         0.517084         0.313954
 C        -2.225044         0.489133         1.155300
 C        -1.495928         1.845393         0.672989
 C        -2.136439         2.888626        -0.254629
 C        -2.286507         2.790525        -1.588751
 C        -1.912450         1.708881        -2.543360
 O        -2.096574         0.398996        -1.932241
 C        -0.973298        -0.119855        -1.160805
 H         0.909491         0.508221         0.475241
 H        -3.083172         0.316900         0.501170
 H        -2.328324         0.200234         2.187962
 H        -0.942034         2.397693         1.443078
 H        -2.460745         3.831906         0.243230
 H        -2.861822         3.617361        -2.122401
 H        -2.586507         1.690062        -3.407770
 H        -0.889530         1.876319        -2.795905
 H        -1.270819        -1.259386        -1.049898
 H        -0.022381         0.131781        -1.672822
