19
Iteration:  1430
 O         0.111351        -0.097529         0.940386
 C        -0.973587         0.513498         0.286073
 C        -2.168744         0.668070         1.125463
 C        -1.433241         1.914971         0.699478
 C        -2.133307         2.879522        -0.320389
 C        -2.383260         2.751892        -1.631072
 C        -1.983749         1.643748        -2.457139
 O        -2.035556         0.406122        -1.881999
 C        -0.911221         0.016149        -1.167334
 H         0.948373         0.355033         0.765447
 H        -3.193839         0.490607         0.727942
 H        -2.134574         0.403405         2.240419
 H        -0.732652         2.361532         1.385000
 H        -2.428189         3.758165         0.207967
 H        -2.888259         3.546081        -2.319843
 H        -2.741524         1.376601        -3.287531
 H        -1.045575         1.879698        -2.981631
 H        -0.971420        -1.064710        -1.092865
 H         0.002939         0.219704        -1.774903
