19
Iteration:  4091
 O         0.059782        -0.093934         1.130995
 C        -0.884715         0.526277         0.298249
 C        -2.239594         0.615257         0.862443
 C        -1.494485         1.938579         0.814867
 C        -1.892369         2.926682        -0.317608
 C        -2.340242         2.791888        -1.593772
 C        -2.312230         1.545962        -2.468104
 O        -1.980153         0.260597        -1.946957
 C        -0.763317         0.170933        -1.201520
 H         0.915611         0.503116         1.120216
 H        -3.010256         0.419633         0.091746
 H        -2.436060         0.052314         1.787191
 H        -1.095047         2.380312         1.701339
 H        -1.993850         3.880104         0.056984
 H        -2.520763         3.648495        -2.152707
 H        -3.402272         1.486896        -2.719821
 H        -1.793969         1.791608        -3.418382
 H        -0.588661        -0.846784        -1.246919
 H        -0.037151         0.741309        -1.669649
