19
Iteration:  3396charge 0 multiplicity 1
 O         0.300841         0.088523         0.974327
 C        -0.915484         0.560636         0.321052
 C        -2.332343         0.490782         1.000248
 C        -1.528270         1.858757         0.763176
 C        -2.029659         2.902293        -0.208675
 C        -2.215639         2.780413        -1.529955
 C        -1.986274         1.595268        -2.584217
 O        -2.128073         0.342105        -1.945993
 C        -1.071341         0.034228        -1.164344
 H         0.940162         0.759640         0.719539
 H        -3.082628         0.359757         0.223602
 H        -2.393817         0.094751         2.041076
 H        -1.038131         2.296759         1.644542
 H        -2.100307         3.927458         0.190148
 H        -2.787766         3.424975        -2.259272
 H        -2.925884         1.499710        -3.203329
 H        -1.003931         1.706154        -3.091573
 H        -1.142916        -1.062985        -1.008901
 H        -0.093703         0.354596        -1.650009
