19
Iteration:   287
 O         0.271439        -0.037632         0.889917
 C        -0.869543         0.511053         0.324990
 C        -2.177649         0.478057         0.927831
 C        -1.433273         1.930413         0.562594
 C        -2.171290         2.875724        -0.295015
 C        -2.515097         2.817192        -1.590389
 C        -1.887001         1.814474        -2.404647
 O        -2.073407         0.430338        -1.885515
 C        -1.018634        -0.093260        -1.054246
 H         0.570755         0.465032         1.611448
 H        -3.120268         0.205168         0.427304
 H        -2.295123         0.410070         2.007154
 H        -0.993444         2.323669         1.437486
 H        -2.778811         3.601337         0.269599
 H        -3.393005         3.298513        -1.926768
 H        -2.029664         1.790982        -3.461998
 H        -0.808904         1.963155        -2.396742
 H        -1.268749        -1.138911        -0.917575
 H         0.009534        -0.282249        -1.560812
