19
Iteration:   741
 O         0.258881         0.242921         0.771902
 C        -0.990547         0.591940         0.254291
 C        -2.239975         0.501691         1.137619
 C        -1.469003         1.885667         0.669731
 C        -2.144157         2.824542        -0.223636
 C        -2.139188         2.770849        -1.549837
 C        -1.879019         1.657790        -2.484498
 O        -2.068416         0.352979        -1.972814
 C        -1.170438        -0.194182        -1.030037
 H         0.746397         0.975687         1.191544
 H        -3.189065         0.303961         0.630581
 H        -2.105128         0.101488         2.165205
 H        -1.130326         2.407217         1.528679
 H        -2.380274         3.733712         0.212604
 H        -2.699612         3.546102        -2.028157
 H        -2.867428         1.617679        -3.119877
 H        -1.008177         1.821588        -3.249418
 H        -1.699338        -1.199135        -0.741000
 H        -0.133166        -0.377411        -1.446829
