19
Iteration:  3056
 O         0.282353         0.054958         0.966029
 C        -0.985136         0.432249         0.291314
 C        -2.152694         0.651916         1.164440
 C        -1.471144         1.849384         0.562779
 C        -2.202158         2.884410        -0.245239
 C        -2.403609         2.828424        -1.587340
 C        -1.817257         1.700022        -2.507453
 O        -2.024304         0.448042        -1.966054
 C        -1.162983        -0.174653        -1.056843
 H         0.791711         0.217029         0.113565
 H        -3.197648         0.449508         0.829738
 H        -1.921047         0.489202         2.236005
 H        -0.935408         2.425546         1.335769
 H        -2.871502         3.522232         0.332107
 H        -2.965488         3.556409        -2.142186
 H        -2.278898         1.606278        -3.404295
 H        -0.778288         1.902596        -2.855049
 H        -1.291308        -1.264984        -1.164932
 H        -0.152829        -0.088553        -1.515204
