19
Iteration:  1661
 O         0.027117        -0.119945         1.300792
 C        -0.901187         0.482500         0.286497
 C        -2.188574         0.573744         0.936725
 C        -1.392853         1.887115         0.668934
 C        -1.865828         2.912867        -0.309459
 C        -2.330973         2.758849        -1.612551
 C        -2.368967         1.572470        -2.530452
 O        -2.071019         0.273202        -1.918184
 C        -0.753508         0.320574        -1.272538
 H         0.905009         0.162949         0.917389
 H        -3.072225         0.548774         0.337106
 H        -2.219387         0.325562         1.965119
 H        -0.763331         2.292585         1.520212
 H        -2.149071         3.933198         0.008832
 H        -2.711404         3.647357        -2.064743
 H        -3.448101         1.316647        -2.942298
 H        -1.730450         1.747448        -3.456336
 H        -0.397487        -0.626962        -1.516935
 H         0.094622         1.011125        -1.660604
