19
Iteration:  2994charge 0 multiplicity 1
 O         0.275147         0.102061         0.889416
 C        -0.928718         0.520968         0.377996
 C        -2.317474         0.542466         1.071463
 C        -1.565575         1.851414         0.721782
 C        -1.990839         2.835870        -0.297474
 C        -2.244140         2.784802        -1.609666
 C        -2.032138         1.595134        -2.541309
 O        -2.109237         0.380921        -1.884994
 C        -1.000606        -0.020608        -1.111735
 H         0.960997         0.800576         0.877045
 H        -3.068260         0.430790         0.321369
 H        -2.575148         0.224181         2.019693
 H        -1.078062         2.293552         1.649940
 H        -2.183264         3.756186         0.146843
 H        -2.633680         3.682894        -1.997400
 H        -2.856199         1.609812        -3.411706
 H        -1.025950         1.696191        -2.995126
 H        -0.910027        -1.095114        -1.070349
 H        -0.144728         0.469254        -1.719049
