19
Iteration:  4935charge 0 multiplicity 1
 O         0.030536        -0.107852         1.046596
 C        -0.933023         0.523380         0.306515
 C        -2.196599         0.678046         0.961189
 C        -1.371337         1.889203         0.634168
 C        -1.999820         2.873580        -0.239338
 C        -2.495663         2.705146        -1.505856
 C        -2.085970         1.698743        -2.560869
 O        -2.004054         0.303026        -1.944711
 C        -0.838392         0.098261        -1.122437
 H         0.803317         0.371855         1.006183
 H        -3.101067         0.562438         0.413347
 H        -2.087543         0.394691         1.982121
 H        -0.905686         2.312985         1.451174
 H        -2.069799         3.845330         0.309110
 H        -3.229334         3.540591        -1.941679
 H        -2.930875         1.565628        -3.344069
 H        -1.190185         1.939302        -3.175457
 H        -0.487749        -1.005240        -1.112155
 H         0.006854         0.663372        -1.673735
