19
Iteration:  3489
 O         0.209988         0.033169         0.827209
 C        -1.012559         0.467503         0.278873
 C        -2.118764         0.645593         1.202131
 C        -1.424462         1.938282         0.630506
 C        -2.207539         2.904653        -0.226358
 C        -2.526561         2.680608        -1.586432
 C        -1.644494         1.757982        -2.418526
 O        -1.998050         0.384579        -2.050084
 C        -1.225058        -0.134067        -1.067236
 H         0.926592         0.306644         0.228291
 H        -3.116805         0.528728         0.773624
 H        -2.093230         0.557837         2.278259
 H        -0.750508         2.295205         1.483936
 H        -2.997815         3.556360         0.245555
 H        -3.159123         3.397509        -2.042975
 H        -1.858721         1.879768        -3.444456
 H        -0.601898         1.933478        -2.170396
 H        -1.453929        -1.224733        -0.889631
 H        -0.186877        -0.120463        -1.438865
