19
Iteration:  4610charge 0 multiplicity 1
 O         0.277572         0.138224         0.917707
 C        -0.942455         0.527801         0.350384
 C        -2.239120         0.468196         1.110530
 C        -1.583207         1.785861         0.677768
 C        -2.167736         2.832331        -0.265828
 C        -2.181873         2.794505        -1.599527
 C        -1.851008         1.631484        -2.479845
 O        -2.203920         0.382677        -1.916372
 C        -1.037975         0.017911        -1.200368
 H         0.971732         0.891563         0.751333
 H        -2.992348         0.023679         0.426739
 H        -2.373342         0.451130         2.206767
 H        -1.077095         2.357101         1.494438
 H        -2.386653         3.865340         0.185351
 H        -2.602083         3.687704        -2.222486
 H        -2.479043         1.757743        -3.373850
 H        -0.740379         1.674117        -2.860210
 H        -1.294171        -1.107897        -0.909718
 H         0.016468         0.285052        -1.614293
