19
Iteration:  4893charge 0 multiplicity 1
 O         0.139419         0.005527         1.006175
 C        -0.958921         0.528568         0.199913
 C        -2.269497         0.580763         0.957489
 C        -1.574636         1.917054         0.748558
 C        -2.031605         2.883051        -0.194914
 C        -2.159151         2.816205        -1.534333
 C        -2.163894         1.598704        -2.459477
 O        -2.029321         0.225108        -1.960283
 C        -0.846085         0.098962        -1.149330
 H         0.975394         0.426902         0.669935
 H        -3.163660         0.409745         0.460936
 H        -2.355635         0.310451         1.944618
 H        -1.060638         2.293087         1.562182
 H        -1.883671         3.968012         0.053788
 H        -2.476156         3.790163        -1.929551
 H        -3.265962         1.556494        -2.872875
 H        -1.563790         1.642050        -3.430646
 H        -0.657297        -1.019735        -1.208521
 H        -0.079066         0.763897        -1.572681
