19
Iteration:    50charge 0 multiplicity 1
 O         0.048256        -0.035949         1.127096
 C        -0.868217         0.547078         0.221771
 C        -2.188030         0.580800         0.895090
 C        -1.430894         1.886598         0.706471
 C        -1.966533         2.888218        -0.250810
 C        -2.526200         2.666024        -1.444029
 C        -2.281173         1.640114        -2.472010
 O        -1.980536         0.395437        -1.933236
 C        -0.719868         0.172592        -1.242034
 H         0.250021        -0.996834         0.917809
 H        -3.082168         0.425322         0.251469
 H        -2.269799        -0.009991         1.833741
 H        -0.855866         2.291862         1.571067
 H        -1.880616         3.919078         0.115914
 H        -2.686217         3.650418        -2.006472
 H        -2.993782         1.559632        -3.346770
 H        -1.329609         2.100579        -3.006425
 H        -0.466557        -0.944217        -1.378985
 H         0.184228         0.598964        -1.794323
