19
Iteration:  3713charge 0 multiplicity 1
 O         0.031977        -0.098355         1.228476
 C        -0.900994         0.503203         0.267145
 C        -2.292021         0.693356         0.800327
 C        -1.420959         1.870831         0.639275
 C        -1.839112         2.887145        -0.266386
 C        -2.393700         2.684819        -1.542888
 C        -2.416307         1.486917        -2.403822
 O        -1.908138         0.280256        -1.952339
 C        -0.745691         0.330616        -1.193806
 H         0.904517         0.176323         0.833176
 H        -3.171771         0.641294         0.173961
 H        -2.547086         0.396190         1.826540
 H        -0.973598         2.178510         1.512701
 H        -1.647814         3.911982        -0.023187
 H        -2.708043         3.610357        -1.915162
 H        -3.352869         1.317677        -2.953163
 H        -1.794854         1.954394        -3.293379
 H        -0.330099        -0.721814        -1.316847
 H        -0.067459         1.049568        -1.627972
