19
Iteration:  2707charge 0 multiplicity 1
 O         0.215554        -0.007826         0.913339
 C        -0.893490         0.582279         0.179911
 C        -2.151044         0.741373         1.071987
 C        -1.457225         1.989624         0.580223
 C        -2.356511         2.890214        -0.179171
 C        -2.353641         2.730651        -1.509616
 C        -1.728250         1.667671        -2.463606
 O        -2.051823         0.339666        -1.908698
 C        -1.148416        -0.192565        -1.147390
 H         1.038538         0.600616         0.878694
 H        -3.109950         0.586794         0.599397
 H        -1.989304         0.279372         2.073732
 H        -0.886238         2.466393         1.331242
 H        -2.795663         3.659485         0.503402
 H        -3.211794         3.259387        -2.067122
 H        -2.031942         1.673241        -3.496158
 H        -0.726381         1.679635        -2.497387
 H        -1.439491        -1.218426        -0.957641
 H        -0.219262        -0.284368        -1.612346
