19
Iteration:  3616
 O         0.128156         0.145040         1.098216
 C        -0.905155         0.559367         0.286841
 C        -2.225317         0.437478         0.911807
 C        -1.575133         1.834392         0.706702
 C        -1.911600         2.844303        -0.258941
 C        -2.123881         2.749602        -1.580560
 C        -2.254213         1.630529        -2.489902
 O        -2.149183         0.315261        -1.890042
 C        -0.861331         0.079302        -1.214360
 H         0.989465         0.706088         0.996797
 H        -3.095580         0.241849         0.283398
 H        -2.358881         0.267264         1.991903
 H        -1.200989         2.213306         1.572617
 H        -1.729631         3.757524         0.194828
 H        -2.377627         3.605179        -2.138184
 H        -3.207300         1.780395        -3.124908
 H        -1.501712         1.808104        -3.282158
 H        -0.717389        -0.999210        -1.160045
 H        -0.003001         0.550792        -1.774517
