19
Iteration:  1854charge 0 multiplicity 1
 O         0.218088         0.085562         0.995259
 C        -1.011472         0.474686         0.333568
 C        -2.278670         0.659886         1.125130
 C        -1.438850         1.849947         0.678799
 C        -1.955226         2.828658        -0.276726
 C        -2.468518         2.759967        -1.508907
 C        -1.943000         1.642209        -2.529070
 O        -2.077449         0.337799        -2.058313
 C        -1.005295        -0.030050        -1.175027
 H         0.920138         0.821473         0.864984
 H        -3.218089         0.449433         0.649541
 H        -2.041321         0.446104         2.131127
 H        -0.761005         2.321787         1.419875
 H        -2.088609         3.803790         0.183425
 H        -3.093072         3.612354        -1.848809
 H        -2.508572         1.728391        -3.494338
 H        -0.935551         1.938414        -2.765826
 H        -1.136777        -1.155329        -1.119079
 H         0.006324        -0.048495        -1.566020
