19
Iteration:  3692
 O         0.008252        -0.125081         1.171941
 C        -0.845853         0.590857         0.312104
 C        -2.263155         0.565339         0.807618
 C        -1.488644         1.961933         0.783563
 C        -1.855386         2.944651        -0.246090
 C        -2.212474         2.743479        -1.628809
 C        -2.434318         1.467971        -2.445382
 O        -2.010011         0.185381        -1.933230
 C        -0.677506         0.343626        -1.260681
 H         0.882593         0.160557         1.202701
 H        -3.038771         0.411401         0.063917
 H        -2.466783         0.114468         1.796345
 H        -1.255074         2.353252         1.691731
 H        -1.943989         3.993749         0.040197
 H        -2.478458         3.635546        -2.153858
 H        -3.579715         1.492126        -2.576447
 H        -2.129457         1.789818        -3.439192
 H        -0.253169        -0.635473        -1.485637
 H        -0.190570         1.211143        -1.596881
