19
Iteration:  2966charge 0 multiplicity 1
 O         0.192386        -0.018528         1.045455
 C        -0.920035         0.493053         0.338220
 C        -2.267836         0.471978         1.015234
 C        -1.534254         1.876770         0.579807
 C        -2.047792         2.925405        -0.316206
 C        -2.197534         2.841129        -1.646208
 C        -2.221057         1.583866        -2.524096
 O        -2.082163         0.394508        -1.798102
 C        -0.822052         0.049975        -1.151196
 H         0.957054         0.660666         1.147139
 H        -3.178324         0.228864         0.397182
 H        -2.318443         0.253422         2.127462
 H        -1.106827         2.267396         1.454784
 H        -2.037455         4.002892         0.130532
 H        -2.636709         3.774649        -2.131209
 H        -3.140666         1.558354        -3.060946
 H        -1.473210         1.663032        -3.374804
 H        -0.460331        -1.025693        -1.288337
 H        -0.056891         0.608717        -1.677128
