19
Iteration:  2329
 O         0.217314         0.129034         0.977109
 C        -0.947719         0.549172         0.216663
 C        -2.181714         0.599973         1.115392
 C        -1.464083         1.882292         0.561294
 C        -2.109571         2.905168        -0.276897
 C        -2.471601         2.759165        -1.568688
 C        -1.761391         1.726359        -2.425932
 O        -2.123361         0.344046        -1.929499
 C        -1.091206        -0.221539        -1.153707
 H         1.002937         0.597201         0.715066
 H        -3.060814         0.339006         0.669935
 H        -2.092636         0.371131         2.148444
 H        -0.822660         2.270163         1.323049
 H        -2.610518         3.556593         0.358015
 H        -3.079810         3.502821        -2.068845
 H        -2.030395         1.754049        -3.519634
 H        -0.700269         1.832590        -2.202107
 H        -1.510643        -1.205649        -0.897872
 H        -0.089398        -0.071331        -1.687128
