19
Iteration:  4089
 O         0.062830        -0.086029         1.124220
 C        -0.869767         0.529358         0.309112
 C        -2.235552         0.607829         0.856000
 C        -1.495270         1.924960         0.820703
 C        -1.911431         2.919443        -0.337557
 C        -2.331174         2.792356        -1.602287
 C        -2.308398         1.552992        -2.471317
 O        -1.987447         0.256872        -1.941597
 C        -0.777929         0.179353        -1.189502
 H         0.880740         0.502416         1.142127
 H        -2.959282         0.415395         0.071983
 H        -2.454634         0.043541         1.746121
 H        -1.087896         2.340665         1.717845
 H        -1.963584         3.937036         0.068064
 H        -2.438546         3.648248        -2.141342
 H        -3.397099         1.605086        -2.668213
 H        -1.868425         1.760791        -3.369693
 H        -0.580613        -0.938482        -1.250114
 H         0.004935         0.786617        -1.632263
