19
Iteration:   336
 O         0.293625         0.316336         0.809745
 C        -0.993727         0.516514         0.288309
 C        -2.181694         0.424317         1.301420
 C        -1.663952         1.767502         0.659390
 C        -2.162593         2.855886        -0.213032
 C        -2.109535         2.891940        -1.561745
 C        -1.864927         1.682763        -2.466239
 O        -2.165207         0.286404        -2.070683
 C        -1.080164        -0.058575        -1.178240
 H         0.149227        -0.288073         1.626180
 H        -3.092412        -0.083638         0.970136
 H        -1.921474         0.229833         2.357584
 H        -1.105763         2.283541         1.520803
 H        -2.537677         3.704953         0.387903
 H        -2.248081         3.862330        -2.172155
 H        -2.514098         1.767782        -3.381209
 H        -0.878785         1.663907        -3.023862
 H        -0.879593        -1.166049        -1.247293
 H        -0.163413         0.346658        -1.611993
