19
Iteration:  3559charge 0 multiplicity 1
 O         0.266149        -0.023887         0.980332
 C        -0.902152         0.506450         0.290922
 C        -2.256856         0.652652         1.116424
 C        -1.499633         1.855873         0.676629
 C        -2.100077         2.839878        -0.304288
 C        -2.436224         2.748550        -1.573545
 C        -1.850478         1.683872        -2.566547
 O        -2.084274         0.457432        -1.939671
 C        -1.036308        -0.052064        -1.112775
 H         0.989704         0.258591         0.493713
 H        -3.289388         0.433800         0.726765
 H        -2.150810         0.558706         2.189647
 H        -1.075096         2.331909         1.663311
 H        -2.582729         3.463861         0.414835
 H        -2.950807         3.587790        -2.158892
 H        -2.574740         1.681274        -3.511436
 H        -0.804728         1.929406        -2.801114
 H        -1.244091        -1.187461        -1.168930
 H        -0.058416         0.103689        -1.598107
