19
Iteration:  3917charge 0 multiplicity 1
 O         0.044749        -0.061295         1.012256
 C        -0.950906         0.547800         0.193590
 C        -2.088663         0.743028         1.180494
 C        -1.314442         1.997386         0.675273
 C        -2.218696         2.848553        -0.214045
 C        -2.570008         2.736772        -1.578492
 C        -1.851089         1.735213        -2.508648
 O        -1.934679         0.371393        -2.081895
 C        -1.005671        -0.187681        -1.115035
 H         0.872299        -0.019847         0.617913
 H        -3.116845         0.764464         0.820843
 H        -1.933538         0.402041         2.211184
 H        -0.717246         2.586851         1.399349
 H        -2.887056         3.410621         0.287229
 H        -3.392429         3.317235        -1.888716
 H        -2.343969         1.902505        -3.467480
 H        -0.768341         2.000556        -2.631498
 H        -1.264898        -1.233833        -1.027566
 H        -0.029428        -0.224240        -1.587501
