19
Iteration:  1476
 O         0.136644         0.063955         1.076135
 C        -0.984065         0.533159         0.188334
 C        -2.106258         0.763340         1.125320
 C        -1.371062         1.969113         0.592752
 C        -2.175827         2.909361        -0.173254
 C        -2.418396         2.721423        -1.444590
 C        -1.869774         1.674349        -2.406898
 O        -2.019854         0.277510        -2.141162
 C        -1.110834        -0.235506        -1.231820
 H         0.959286         0.163934         0.661852
 H        -3.085780         0.740570         0.623414
 H        -2.125042         0.487267         2.132823
 H        -0.701673         2.599941         1.237374
 H        -2.618728         3.676307         0.489342
 H        -3.150025         3.474815        -1.871112
 H        -2.396047         1.817169        -3.361320
 H        -0.814911         2.017133        -2.549250
 H        -1.248832        -1.367039        -1.269343
 H        -0.068539        -0.178846        -1.632314
