19
Iteration:  3258
 O         0.116139         0.039688         1.109823
 C        -0.953781         0.549849         0.245049
 C        -2.320572         0.520696         0.909647
 C        -1.569379         1.890506         0.790597
 C        -1.846143         2.883118        -0.290231
 C        -2.152303         2.773547        -1.556349
 C        -2.386079         1.619781        -2.399744
 O        -1.990006         0.255687        -1.980681
 C        -0.753106         0.104094        -1.239684
 H         0.962773         0.534620         0.889177
 H        -3.141218         0.404051         0.134331
 H        -2.586784         0.099232         1.904240
 H        -1.067013         2.319338         1.605949
 H        -1.780917         3.927161         0.108537
 H        -2.473152         3.684629        -2.228846
 H        -3.502004         1.498029        -2.353972
 H        -1.951135         1.693080        -3.417444
 H        -0.458180        -0.945579        -1.268199
 H        -0.054610         0.872585        -1.723702
