19
Iteration:  4116
 O        -0.040800        -0.070844         1.101457
 C        -0.943409         0.510903         0.238891
 C        -2.295111         0.717485         0.976774
 C        -1.354473         1.874783         0.597895
 C        -1.930218         2.934667        -0.257543
 C        -2.446987         2.679922        -1.496959
 C        -2.232031         1.568321        -2.429634
 O        -1.921150         0.230890        -1.976192
 C        -0.710798         0.196355        -1.174372
 H         0.914146         0.082682         0.782721
 H        -3.242787         0.531591         0.450438
 H        -2.305750         0.456852         2.057009
 H        -0.769173         2.240628         1.496441
 H        -2.001137         4.005466         0.115939
 H        -2.954406         3.613148        -2.084615
 H        -3.242859         1.604483        -2.915378
 H        -1.451427         1.927381        -3.245057
 H        -0.427744        -0.803064        -1.316007
 H         0.012761         0.897797        -1.579462
