19
Iteration:  1701charge 0 multiplicity 1
 O         0.139547        -0.077909         1.041555
 C        -0.947294         0.484772         0.264903
 C        -2.346004         0.640241         0.860757
 C        -1.604328         1.957480         0.779956
 C        -1.826426         3.031516        -0.251047
 C        -2.263432         2.785458        -1.565536
 C        -2.462674         1.432677        -2.358811
 O        -1.896783         0.255707        -1.984028
 C        -0.725223         0.145866        -1.194586
 H         0.976634         0.352575         0.806264
 H        -3.209050         0.841532         0.280657
 H        -2.592042         0.319175         1.871077
 H        -1.012795         2.254663         1.675692
 H        -1.632261         4.033701         0.201178
 H        -2.181967         3.679688        -2.302077
 H        -3.447532         1.281449        -2.593560
 H        -1.990519         1.707245        -3.323442
 H        -0.454236        -0.970140        -1.156406
 H        -0.047894         0.828051        -1.582368
