19
Iteration:  2347charge 0 multiplicity 1
 O         0.223186         0.186789         0.934491
 C        -1.046101         0.367878         0.322927
 C        -2.177237         0.675695         1.138817
 C        -1.399630         1.849980         0.619428
 C        -2.182127         2.773435        -0.241422
 C        -2.386009         2.784654        -1.576982
 C        -1.840932         1.662612        -2.458521
 O        -2.097287         0.393506        -2.029199
 C        -1.040221        -0.183949        -1.100113
 H         0.807145         0.863673         0.666378
 H        -3.216926         0.656604         0.718033
 H        -2.137194         0.453583         2.220119
 H        -0.810321         2.472946         1.297507
 H        -2.267505         3.773442         0.349863
 H        -2.924231         3.586931        -2.153935
 H        -2.303712         1.867078        -3.431432
 H        -0.766370         1.900288        -2.653249
 H        -1.248769        -1.256320        -1.144670
 H        -0.097565         0.147207        -1.582932
