19
Iteration:  4500charge 0 multiplicity 1
 O         0.056974        -0.118287         1.012113
 C        -0.943442         0.501701         0.279876
 C        -2.267459         0.634108         1.076455
 C        -1.485167         1.933621         0.692728
 C        -2.004543         2.906854        -0.283007
 C        -2.281688         2.816502        -1.622706
 C        -2.273124         1.570796        -2.471497
 O        -1.920301         0.300741        -1.956837
 C        -0.757987         0.124861        -1.185245
 H         0.780675         0.530288         1.202042
 H        -3.186440         0.507503         0.442999
 H        -2.421448         0.340847         2.154475
 H        -0.974373         2.330143         1.574611
 H        -2.006819         3.970316         0.148763
 H        -2.711436         3.639577        -2.190042
 H        -3.296764         1.320669        -2.695464
 H        -1.579171         1.745930        -3.311790
 H        -0.539029        -1.008552        -1.306341
 H         0.097143         0.752979        -1.522227
