19
Iteration:  3648charge 0 multiplicity 1
 O         0.229559         0.044923         1.075996
 C        -0.957778         0.465526         0.379707
 C        -2.373200         0.492664         0.902429
 C        -1.634284         1.788271         0.691035
 C        -1.784798         2.892542        -0.279593
 C        -2.118806         2.799977        -1.635185
 C        -2.427185         1.577787        -2.493648
 O        -2.043133         0.281008        -1.914654
 C        -0.762168         0.240141        -1.158779
 H         0.838845         0.734594         1.047089
 H        -3.135097         0.299850         0.159402
 H        -2.590828         0.398247         1.981025
 H        -1.310016         2.179479         1.589492
 H        -1.531560         3.864538         0.042354
 H        -2.415231         3.664895        -2.183162
 H        -3.568289         1.497972        -2.706028
 H        -1.921575         1.658994        -3.405297
 H        -0.289181        -0.750822        -1.238250
 H        -0.170541         1.063461        -1.512335
