19
Iteration:  2859
 O         0.114469        -0.041340         1.122457
 C        -0.904048         0.548585         0.279040
 C        -2.273938         0.606577         0.973314
 C        -1.483638         1.848516         0.757306
 C        -1.882128         2.880668        -0.279520
 C        -2.149515         2.711864        -1.642313
 C        -2.440366         1.592036        -2.530281
 O        -2.005600         0.249894        -1.996458
 C        -0.732377         0.241696        -1.195239
 H         0.432270         0.724967         1.726422
 H        -3.304786         0.675574         0.447126
 H        -2.307797         0.106054         1.977856
 H        -1.261858         2.155864         1.720025
 H        -1.870849         4.001475        -0.048471
 H        -2.684055         3.619333        -2.167701
 H        -3.559067         1.389387        -2.443469
 H        -1.967954         1.589661        -3.493781
 H        -0.516881        -0.788839        -1.049868
 H        -0.111771         0.939024        -1.812590
