19
Iteration:   779charge 0 multiplicity 1
 O         0.280484         0.207277         0.962345
 C        -0.954033         0.531389         0.269597
 C        -2.237591         0.439773         1.163395
 C        -1.592102         1.795357         0.553313
 C        -2.054053         2.884538        -0.316167
 C        -2.184517         2.863561        -1.622217
 C        -1.929940         1.620522        -2.479959
 O        -2.233037         0.360187        -1.829178
 C        -1.076589        -0.109745        -1.153228
 H         0.914302         0.956114         0.643144
 H        -3.095173        -0.123983         0.810811
 H        -1.948608         0.340099         2.205786
 H        -1.060936         2.173753         1.474128
 H        -2.070239         3.947943         0.195495
 H        -2.461257         3.812062        -2.134033
 H        -2.488106         1.745797        -3.370311
 H        -0.825166         1.590412        -2.814995
 H        -1.036625        -1.166874        -1.191951
 H        -0.165852         0.260691        -1.701052
