19
Iteration:  3437
 O         0.187592         0.136093         0.928319
 C        -1.007672         0.440058         0.175918
 C        -2.144823         0.539529         1.271115
 C        -1.539203         1.833300         0.516095
 C        -2.289743         2.858416        -0.271942
 C        -2.229472         2.905812        -1.578873
 C        -1.785963         1.684781        -2.427022
 O        -2.089197         0.423048        -1.920720
 C        -1.064837        -0.188349        -1.149601
 H         0.976263         0.659431         0.514718
 H        -3.090238         0.151535         0.915863
 H        -1.785908         0.275136         2.256870
 H        -0.805520         2.304889         1.287904
 H        -2.615720         3.715982         0.303989
 H        -2.717821         3.749578        -2.078842
 H        -2.513280         1.827055        -3.327843
 H        -0.683275         1.669198        -2.687491
 H        -1.351703        -1.245167        -0.914280
 H        -0.067278        -0.013312        -1.601976
