19
Iteration:   840charge 0 multiplicity 1
 O         0.059478        -0.044786         1.117488
 C        -0.930855         0.479077         0.293460
 C        -2.203699         0.619712         1.042063
 C        -1.329166         1.945913         0.634522
 C        -2.064564         2.938819        -0.260470
 C        -2.351582         2.850538        -1.569443
 C        -2.223113         1.586033        -2.508800
 O        -2.008502         0.233647        -1.959347
 C        -0.816800         0.078995        -1.213670
 H         0.932030         0.231083         0.678654
 H        -3.108923         0.608311         0.405334
 H        -2.282344         0.361581         2.095839
 H        -0.812423         2.385666         1.508831
 H        -2.255362         3.907158         0.217127
 H        -2.981720         3.589887        -2.109675
 H        -3.266611         1.439521        -2.990194
 H        -1.418721         1.720564        -3.233942
 H        -0.412336        -0.999694        -1.242201
 H         0.013328         0.657095        -1.644039
