19
Iteration:  4890
 O         0.135474         0.038794         1.015776
 C        -0.969739         0.528152         0.217301
 C        -2.262899         0.548056         0.948619
 C        -1.578633         1.886092         0.733357
 C        -2.006776         2.871189        -0.227229
 C        -2.124250         2.820238        -1.549599
 C        -2.192805         1.600283        -2.424084
 O        -2.027767         0.246867        -1.958495
 C        -0.874733         0.107414        -1.151490
 H         0.931373         0.390440         0.717672
 H        -3.233078         0.373835         0.415118
 H        -2.252720         0.208938         2.071569
 H        -1.031096         2.368659         1.583537
 H        -1.946207         3.898915         0.106911
 H        -2.507978         3.852050        -1.971944
 H        -3.221304         1.570051        -2.862479
 H        -1.580443         1.632310        -3.416261
 H        -0.591375        -0.968162        -1.192810
 H         0.012342         0.677968        -1.704318
