19
Iteration:   361charge 0 multiplicity 1
 O         0.251129         0.373719         0.917800
 C        -1.029315         0.485186         0.334571
 C        -2.170808         0.343188         1.221655
 C        -1.672207         1.832368         0.779572
 C        -2.025741         2.781001        -0.246817
 C        -2.157599         2.724907        -1.628854
 C        -2.008460         1.742422        -2.595363
 O        -2.063807         0.434682        -2.021642
 C        -1.058691        -0.083234        -1.126015
 H         0.705631        -0.479349         0.592697
 H        -3.214431         0.222268         0.816943
 H        -1.967014         0.040537         2.250474
 H        -1.102784         2.332811         1.616940
 H        -2.218226         3.779894         0.148725
 H        -2.220562         3.755802        -2.103146
 H        -2.784410         1.653601        -3.353170
 H        -1.111870         1.993044        -3.311240
 H        -1.370684        -1.150272        -1.105643
 H        -0.053537        -0.058884        -1.534376
