19
Iteration:   627charge 0 multiplicity 1
 O         0.178050         0.117961         0.962543
 C        -1.019412         0.495323         0.257502
 C        -2.257601         0.588269         1.071749
 C        -1.479310         1.933097         0.686067
 C        -2.009245         2.963021        -0.218228
 C        -2.419420         2.774083        -1.518481
 C        -2.036041         1.606712        -2.451930
 O        -2.017271         0.242251        -2.000514
 C        -0.897174        -0.026219        -1.207564
 H         0.637923        -0.688937         0.550346
 H        -3.276511         0.579907         0.680074
 H        -2.220399         0.432407         2.152571
 H        -0.801341         2.238901         1.550294
 H        -2.161121         4.058138         0.174969
 H        -2.913139         3.657590        -2.039022
 H        -2.601848         1.677586        -3.383375
 H        -0.914000         1.926844        -2.557774
 H        -0.737770        -1.110014        -0.983514
 H         0.016608         0.372600        -1.746406
