19
Iteration:  1558
 O         0.163923         0.208951         0.920768
 C        -0.997207         0.431855         0.250792
 C        -2.106737         0.458834         1.151534
 C        -1.567482         1.877950         0.671117
 C        -2.121265         2.895783        -0.286120
 C        -2.127474         2.848618        -1.633656
 C        -1.865065         1.696186        -2.485310
 O        -2.163451         0.372670        -1.890309
 C        -1.089869        -0.150595        -1.103472
 H         0.880605         0.617425         0.458276
 H        -3.106855         0.077476         0.731955
 H        -1.724653         0.284827         2.200931
 H        -0.956686         2.339493         1.402831
 H        -2.586447         3.723027         0.231244
 H        -2.681763         3.626038        -2.205804
 H        -2.634632         1.603004        -3.224433
 H        -0.869567         1.746907        -3.089151
 H        -1.597354        -1.110037        -1.038753
 H        -0.046485         0.007089        -1.508938
