19
Iteration:  3525charge 0 multiplicity 1
 O         0.093271         0.059566         0.966549
 C        -1.006204         0.518223         0.152867
 C        -2.093604         0.719936         1.188370
 C        -1.373736         1.875600         0.543059
 C        -2.250419         2.845155        -0.145252
 C        -2.433704         2.790195        -1.487132
 C        -1.778594         1.734514        -2.358476
 O        -2.010991         0.286207        -2.145894
 C        -1.104923        -0.158680        -1.137155
 H         0.941781         0.409363         0.591457
 H        -3.154087         0.626255         0.911322
 H        -1.726794         0.581311         2.224443
 H        -0.662800         2.474020         1.337386
 H        -2.879449         3.479428         0.457576
 H        -2.935796         3.645399        -2.083292
 H        -2.093024         1.762839        -3.511620
 H        -0.683919         1.797723        -2.446544
 H        -1.383406        -1.275675        -0.946640
 H        -0.065810        -0.015120        -1.526332
