19
Iteration:   270charge 0 multiplicity 1
 O         0.280702        -0.084657         1.076675
 C        -0.880854         0.427189         0.220729
 C        -2.147048         0.674462         1.050409
 C        -1.410412         1.882764         0.555593
 C        -2.246259         2.932413        -0.262854
 C        -2.634864         2.774269        -1.517582
 C        -1.845382         1.746422        -2.389925
 O        -2.082488         0.401409        -2.004822
 C        -0.992475        -0.103070        -1.235137
 H         0.596983         0.570840         1.660686
 H        -2.961241         0.481675         0.358981
 H        -2.166904         0.332527         2.083361
 H        -0.883959         2.385866         1.425874
 H        -2.451656         3.766873         0.389995
 H        -3.210491         3.573493        -2.034848
 H        -2.136261         1.859742        -3.487561
 H        -0.694731         1.873613        -2.401976
 H        -1.040580        -1.225439        -1.187304
 H        -0.151171         0.213737        -1.794342
