19
Iteration:  3499charge 0 multiplicity 1
 O         0.166377         0.039267         0.830291
 C        -1.048532         0.446366         0.243029
 C        -2.113535         0.764378         1.230612
 C        -1.419717         1.940097         0.675161
 C        -2.280828         2.904600        -0.221818
 C        -2.508757         2.754340        -1.501447
 C        -1.671206         1.726971        -2.397578
 O        -1.979823         0.386676        -2.077625
 C        -1.131514        -0.267794        -1.133755
 H         0.962196         0.395093         0.292506
 H        -3.080334         0.564520         0.746322
 H        -2.036497         0.394514         2.249063
 H        -0.689661         2.502950         1.290693
 H        -2.772422         3.782303         0.337796
 H        -3.241607         3.229790        -2.065842
 H        -1.804172         1.766122        -3.405355
 H        -0.591570         1.823621        -2.352285
 H        -1.378918        -1.352389        -1.144140
 H        -0.081776        -0.226426        -1.505286
