19
Iteration:  3924charge 0 multiplicity 1
 O         0.031226        -0.070039         1.051840
 C        -0.907992         0.539069         0.279532
 C        -2.069717         0.789539         1.137620
 C        -1.337272         1.972812         0.640176
 C        -2.219358         2.861489        -0.253331
 C        -2.519516         2.702270        -1.538439
 C        -1.868763         1.773530        -2.490341
 O        -1.955750         0.353732        -2.074301
 C        -1.019889        -0.128372        -1.192702
 H         0.873655         0.001800         0.628656
 H        -3.020292         0.526089         0.673570
 H        -1.904365         0.336593         2.096883
 H        -0.636686         2.361839         1.439822
 H        -2.955973         3.530036         0.442863
 H        -3.491074         3.101917        -1.932813
 H        -2.366852         1.690125        -3.481159
 H        -0.841700         1.965322        -2.712567
 H        -1.444307        -1.109308        -0.977815
 H         0.076437        -0.142615        -1.589356
