19
Iteration:  1408charge 0 multiplicity 1
 O         0.179669        -0.073111         1.071381
 C        -0.912493         0.512810         0.319263
 C        -2.139414         0.556716         1.031014
 C        -1.526580         1.902987         0.568957
 C        -2.124129         2.876797        -0.285948
 C        -2.188866         2.919364        -1.618899
 C        -2.077998         1.660078        -2.584203
 O        -2.180622         0.299419        -1.825808
 C        -0.914123         0.053201        -1.154036
 H         1.091063         0.343858         1.013444
 H        -3.143661         0.237075         0.698251
 H        -2.081825         0.345472         2.180456
 H        -1.025113         2.358274         1.388182
 H        -2.509176         3.712370         0.221718
 H        -2.629219         3.911943        -2.059798
 H        -2.944886         1.442414        -3.301411
 H        -1.175857         1.427627        -3.181521
 H        -0.574658        -0.967710        -1.242337
 H        -0.206553         0.699578        -1.732814
