19
Iteration:  1984charge 0 multiplicity 1
 O         0.148153         0.153435         0.903812
 C        -0.964084         0.566888         0.273434
 C        -2.184839         0.550835         1.134591
 C        -1.531888         1.910951         0.734442
 C        -2.080981         2.913347        -0.223117
 C        -2.198099         2.819296        -1.554143
 C        -1.949202         1.586314        -2.463359
 O        -2.158482         0.269341        -1.986082
 C        -0.982637        -0.101402        -1.217813
 H         0.726452         0.876939         1.041620
 H        -3.056306         0.232602         0.658458
 H        -1.935135         0.156515         2.109253
 H        -0.912747         2.305627         1.567989
 H        -2.544238         3.832120         0.164927
 H        -2.376137         3.711305        -2.143046
 H        -2.715956         1.617347        -3.387067
 H        -0.874201         1.605788        -2.928149
 H        -1.239640        -1.095497        -0.992756
 H        -0.026310        -0.041521        -1.763487
