19
Iteration:   882
 O         0.159632        -0.078594         1.070394
 C        -0.960550         0.557023         0.351489
 C        -2.333880         0.739610         0.838913
 C        -1.354203         1.940995         0.725818
 C        -1.843209         2.924934        -0.262747
 C        -2.407774         2.722156        -1.470032
 C        -2.362763         1.513736        -2.445773
 O        -1.971158         0.204950        -2.024759
 C        -0.790744         0.142171        -1.209468
 H         0.627482         0.561704         1.582357
 H        -3.093454         0.610682         0.035056
 H        -2.631770         0.365640         1.828393
 H        -0.894064         2.279628         1.667450
 H        -1.839900         3.913935         0.107831
 H        -2.833522         3.669657        -1.880926
 H        -3.347998         1.318017        -2.942757
 H        -1.679192         1.773749        -3.323494
 H        -0.413002        -0.925978        -1.284663
 H        -0.081274         0.831304        -1.634834
