19
Iteration:   350charge 0 multiplicity 1
 O         0.225581         0.384749         0.889333
 C        -1.049111         0.531204         0.267282
 C        -2.145599         0.362582         1.277040
 C        -1.683750         1.740632         0.724231
 C        -2.057331         2.826679        -0.234592
 C        -2.096534         2.806527        -1.555024
 C        -1.963410         1.660663        -2.629606
 O        -2.077637         0.383704        -2.045007
 C        -1.087327        -0.019441        -1.141239
 H         0.330421        -0.553165         1.002357
 H        -3.022555        -0.294578         1.065652
 H        -1.745574         0.272084         2.290899
 H        -1.025078         2.159442         1.545281
 H        -2.139627         3.825668         0.207109
 H        -2.503599         3.755336        -2.003649
 H        -2.780013         1.802107        -3.326447
 H        -0.907411         1.811338        -3.092390
 H        -1.326450        -1.086676        -0.966437
 H        -0.066712         0.042885        -1.516140
