19
Iteration:  1337charge 0 multiplicity 1
 O         0.262988         0.051490         1.060094
 C        -0.990432         0.528906         0.281343
 C        -2.342674         0.493579         0.862899
 C        -1.647294         1.875735         0.751591
 C        -1.874077         3.028287        -0.223075
 C        -1.954589         2.735510        -1.595095
 C        -2.396276         1.505337        -2.417658
 O        -2.094244         0.233069        -1.914042
 C        -0.847973         0.168800        -1.234913
 H         0.787895         0.917602         1.083076
 H        -3.180244         0.224815         0.242958
 H        -2.567300         0.261377         1.878929
 H        -1.136567         2.082560         1.749538
 H        -1.782055         4.140258        -0.033853
 H        -1.935119         3.578728        -2.266209
 H        -3.505719         1.656558        -2.402607
 H        -2.074163         1.457986        -3.439133
 H        -0.380838        -0.854905        -1.343517
 H        -0.097142         0.858656        -1.680092
