19
Iteration:  3105charge 0 multiplicity 1
 O         0.102695        -0.027768         0.924127
 C        -0.924392         0.522325         0.190688
 C        -2.104429         0.729987         1.213951
 C        -1.425186         1.960366         0.595015
 C        -2.292478         2.884110        -0.209178
 C        -2.349317         2.764643        -1.538272
 C        -1.783061         1.698992        -2.343025
 O        -2.047654         0.341621        -2.018809
 C        -1.064408        -0.132677        -1.185979
 H         0.917226         0.379330         0.643087
 H        -3.016523         0.369733         0.775774
 H        -1.929563         0.488012         2.285586
 H        -0.646482         2.495045         1.123132
 H        -3.056947         3.591736         0.141502
 H        -3.300138         3.175574        -2.041399
 H        -2.251913         1.836361        -3.435175
 H        -0.750903         1.768206        -2.621239
 H        -1.209772        -1.203907        -1.098370
 H        -0.132668        -0.132877        -1.714828
