19
Iteration:  2278
 O         0.216159         0.049236         0.896091
 C        -0.973471         0.506211         0.300512
 C        -2.226175         0.688283         1.195047
 C        -1.450163         1.860577         0.581453
 C        -2.216566         2.822832        -0.297380
 C        -2.372436         2.798421        -1.629754
 C        -1.810947         1.672324        -2.443255
 O        -2.076857         0.379617        -1.924933
 C        -1.009277        -0.093986        -1.088866
 H         0.926948         0.117373         0.241023
 H        -3.253225         0.379081         0.756300
 H        -2.114645         0.539708         2.313950
 H        -0.823784         2.309861         1.398630
 H        -2.562815         3.749472         0.210515
 H        -3.158040         3.388921        -2.060450
 H        -2.309458         1.747184        -3.411777
 H        -0.712364         1.817059        -2.630409
 H        -1.257826        -1.150053        -0.946644
 H        -0.070521         0.105658        -1.601704
