19
Iteration:  1374
 O         0.180509         0.168086         1.056523
 C        -0.959409         0.494966         0.282515
 C        -2.306513         0.396981         0.914963
 C        -1.591518         1.845092         0.766169
 C        -1.800035         2.853118        -0.297294
 C        -2.167034         2.825517        -1.599195
 C        -2.281898         1.601744        -2.622551
 O        -2.105924         0.360798        -1.776848
 C        -0.886711         0.049351        -1.150736
 H         0.929888         0.758078         0.647770
 H        -3.133711         0.247826         0.196675
 H        -2.328939         0.123798         2.006986
 H        -0.995192         2.219198         1.571172
 H        -1.608133         3.772158         0.180122
 H        -2.251225         3.831871        -2.060980
 H        -3.335588         1.347307        -3.013731
 H        -1.608667         1.872483        -3.460322
 H        -0.759634        -1.011725        -1.162229
 H        -0.002723         0.494386        -1.673786
