19
Iteration:   654charge 0 multiplicity 1
 O         0.195377        -0.021501         1.140473
 C        -0.888291         0.504026         0.304694
 C        -2.139449         0.704535         1.008137
 C        -1.356911         1.936125         0.545776
 C        -2.151551         2.911386        -0.231730
 C        -2.542151         2.772104        -1.498407
 C        -2.014390         1.707640        -2.538173
 O        -1.964299         0.362035        -2.057347
 C        -1.049424        -0.104653        -1.118678
 H         0.921495        -0.499572         0.614911
 H        -3.050986         0.470836         0.453017
 H        -2.178493         0.568269         2.096054
 H        -0.793709         2.277826         1.371181
 H        -2.621243         3.625896         0.360766
 H        -3.201234         3.503426        -1.903141
 H        -2.644279         1.645294        -3.480874
 H        -1.004354         2.027094        -2.717471
 H        -1.166929        -1.184234        -0.926489
 H        -0.062210        -0.131859        -1.634439
