19
Iteration:  2168charge 0 multiplicity 1
 O         0.148396         0.050442         1.222460
 C        -0.921832         0.518590         0.337955
 C        -2.233965         0.430620         0.887916
 C        -1.475118         1.875465         0.645486
 C        -1.866897         2.886821        -0.333421
 C        -2.209428         2.820329        -1.639203
 C        -2.316439         1.554157        -2.530341
 O        -2.142596         0.331445        -1.828770
 C        -0.860012         0.182615        -1.221150
 H         1.022801         0.264788         0.905854
 H        -3.055677         0.336179         0.201419
 H        -2.473686         0.095251         1.882335
 H        -1.039241         2.203282         1.564898
 H        -1.796825         3.846172         0.144069
 H        -2.526895         3.750109        -2.122828
 H        -3.194752         1.395164        -3.048840
 H        -1.427387         1.629917        -3.208074
 H        -0.656629        -0.866226        -1.448008
 H        -0.157728         0.929082        -1.701696
