19
Iteration:   222
 O         0.169504        -0.032656         0.920587
 C        -1.007353         0.544301         0.328744
 C        -2.248067         0.631203         1.146450
 C        -1.432853         1.944199         0.804565
 C        -2.102475         2.864033        -0.182574
 C        -2.390020         2.634463        -1.508679
 C        -2.063500         1.671921        -2.549027
 O        -1.915853         0.337251        -2.134293
 C        -0.943179         0.073616        -1.130615
 H         0.839826        -0.140160         0.200886
 H        -3.238109         0.564171         0.653970
 H        -2.081513         0.317729         2.188514
 H        -0.846591         2.519788         1.486145
 H        -2.568259         3.771728         0.292393
 H        -2.878602         3.540188        -1.882103
 H        -2.801073         1.690471        -3.388170
 H        -1.132174         2.133594        -3.093825
 H        -0.933809        -1.013754        -1.041117
 H         0.019645         0.293159        -1.681708
