19
Iteration:  4103charge 0 multiplicity 1
 O         0.043547        -0.111294         1.147361
 C        -0.936848         0.555785         0.270972
 C        -2.294743         0.634989         0.906394
 C        -1.469303         1.943912         0.674441
 C        -1.876648         2.961936        -0.257402
 C        -2.330199         2.737359        -1.507453
 C        -2.359137         1.526919        -2.483366
 O        -1.936150         0.276416        -1.955801
 C        -0.718397         0.164180        -1.251487
 H         0.869313         0.281502         0.967579
 H        -3.273400         0.596813         0.382043
 H        -2.258413         0.362285         1.985090
 H        -1.062775         2.320287         1.614047
 H        -1.952369         3.916141         0.142007
 H        -2.904641         3.573772        -1.919865
 H        -3.232681         1.230708        -3.092157
 H        -1.564942         1.806685        -3.221605
 H        -0.408604        -0.795403        -1.219939
 H         0.080306         0.675455        -1.700694
