19
Iteration:  4734charge 0 multiplicity 1
 O         0.071840        -0.149448         1.087829
 C        -0.938335         0.437072         0.278914
 C        -2.159624         0.744185         0.972156
 C        -1.346396         1.968793         0.613679
 C        -2.113094         2.927912        -0.268169
 C        -2.537126         2.760777        -1.532257
 C        -2.050751         1.685658        -2.443678
 O        -1.958250         0.331718        -1.972358
 C        -0.860310        -0.021323        -1.190215
 H         1.010262         0.246292         0.842020
 H        -3.094304         0.597891         0.400550
 H        -2.204273         0.413625         2.026900
 H        -0.778203         2.518879         1.372828
 H        -2.703395         3.742022         0.268781
 H        -3.164030         3.501679        -1.953348
 H        -2.829243         1.540345        -3.155794
 H        -1.144362         1.959248        -2.856921
 H        -0.764327        -1.066388        -1.209425
 H         0.107972         0.504677        -1.524702
