19
Iteration:  4192
 O         0.254492         0.128043         0.975209
 C        -0.972338         0.467475         0.283270
 C        -2.258924         0.575653         1.126555
 C        -1.545852         1.822716         0.589950
 C        -2.117195         2.877863        -0.296546
 C        -2.322757         2.862858        -1.576885
 C        -1.872212         1.648061        -2.503203
 O        -2.119554         0.350981        -1.864479
 C        -0.984468        -0.130308        -1.139357
 H         0.851786         0.767121         0.580160
 H        -3.141419         0.303834         0.528169
 H        -2.254061         0.320401         2.192651
 H        -0.918640         2.346493         1.394104
 H        -2.474416         3.837355         0.280627
 H        -2.629777         3.797286        -2.178401
 H        -2.625307         1.686697        -3.334561
 H        -0.825232         1.700168        -2.876223
 H        -1.008962        -1.181696        -1.219660
 H        -0.065129         0.183437        -1.716495
