19
Iteration:  1427charge 0 multiplicity 1
 O         0.107906        -0.109107         0.952293
 C        -0.961306         0.503230         0.267993
 C        -2.176454         0.656504         1.139410
 C        -1.429391         1.912718         0.696634
 C        -2.152526         2.898262        -0.306700
 C        -2.357102         2.790189        -1.663418
 C        -1.993270         1.623087        -2.484335
 O        -2.061990         0.390398        -1.859732
 C        -0.887383         0.023648        -1.162237
 H         0.956061         0.433079         0.747440
 H        -3.149158         0.468172         0.673151
 H        -2.041417         0.354487         2.214827
 H        -0.793207         2.409837         1.422244
 H        -2.456105         3.769525         0.249065
 H        -2.847156         3.526013        -2.266509
 H        -2.776911         1.487566        -3.324672
 H        -1.097978         1.899228        -2.962899
 H        -0.897202        -1.052647        -1.135868
 H         0.038978         0.228435        -1.720443
