19
Iteration:  3333charge 0 multiplicity 1
 O         0.058566        -0.122163         1.190373
 C        -0.873695         0.507985         0.369560
 C        -2.302974         0.617864         0.884445
 C        -1.399234         1.837212         0.670971
 C        -1.865564         2.814785        -0.391368
 C        -2.368218         2.743353        -1.620370
 C        -2.405653         1.624320        -2.438560
 O        -1.981982         0.347638        -1.908967
 C        -0.728705         0.277997        -1.193769
 H         0.988990         0.171691         1.014691
 H        -3.128827         0.257088         0.223852
 H        -2.451187         0.127084         1.905690
 H        -1.038141         2.404416         1.506938
 H        -1.788099         3.831985         0.094370
 H        -2.689996         3.779403        -2.133187
 H        -3.385461         1.487461        -2.800045
 H        -1.790828         1.836152        -3.349283
 H        -0.293676        -0.699606        -1.404591
 H        -0.133214         1.024792        -1.699783
