19
Iteration:  2462
 O         0.099528        -0.008956         1.157318
 C        -0.840375         0.614688         0.289573
 C        -2.186865         0.515299         0.909052
 C        -1.569589         1.881067         0.720473
 C        -1.869802         2.945206        -0.321010
 C        -2.278097         2.831148        -1.608509
 C        -2.342446         1.643724        -2.442270
 O        -2.037755         0.195759        -1.899702
 C        -0.797510         0.090322        -1.263827
 H         0.687182         0.621524         1.568422
 H        -2.985432         0.073496         0.195378
 H        -2.424163         0.180661         1.927746
 H        -1.079654         2.369588         1.654653
 H        -1.790964         4.001671         0.015701
 H        -2.728965         3.648741        -2.212648
 H        -3.361573         1.453738        -2.890402
 H        -1.833224         1.700969        -3.464579
 H        -0.714276        -1.033584        -1.141445
 H         0.048421         0.650496        -1.947192
