19
Iteration:  4250charge 0 multiplicity 1
 O         0.317318         0.221425         0.860438
 C        -0.977727         0.517126         0.310006
 C        -2.175271         0.464969         1.181959
 C        -1.687479         1.852305         0.677784
 C        -2.227012         2.825425        -0.297354
 C        -2.116026         2.813869        -1.578311
 C        -1.774920         1.676105        -2.473835
 O        -2.163875         0.385304        -1.995024
 C        -1.150801        -0.118568        -1.074611
 H         0.962190         0.895959         0.443196
 H        -3.054875        -0.066108         0.855038
 H        -1.911579         0.292019         2.227857
 H        -1.243260         2.371403         1.471577
 H        -2.393679         3.917081         0.253834
 H        -2.532902         3.624744        -2.140756
 H        -2.245119         1.740336        -3.468882
 H        -0.732366         1.526767        -2.821627
 H        -1.627257        -1.103144        -0.739807
 H        -0.183150        -0.355862        -1.656325
