19
Iteration:  2708
 O         0.218290        -0.010087         0.912073
 C        -0.899155         0.583009         0.181031
 C        -2.149503         0.748473         1.070279
 C        -1.467347         1.991860         0.574967
 C        -2.350716         2.881757        -0.173072
 C        -2.343541         2.738028        -1.510541
 C        -1.739707         1.662314        -2.456436
 O        -2.045639         0.335622        -1.912969
 C        -1.148985        -0.187881        -1.152684
 H         1.031078         0.627690         0.889793
 H        -3.137493         0.566704         0.576158
 H        -1.978427         0.291348         2.110959
 H        -0.867505         2.480725         1.371909
 H        -2.791127         3.685660         0.500145
 H        -3.237141         3.238058        -2.057201
 H        -2.030979         1.659395        -3.475973
 H        -0.702653         1.681600        -2.500331
 H        -1.437359        -1.236537        -0.983308
 H        -0.237808        -0.291510        -1.602816
