19
Iteration:  1903charge 0 multiplicity 1
 O         0.167119        -0.030618         0.967888
 C        -0.952627         0.604406         0.193197
 C        -2.076250         0.672786         1.172347
 C        -1.471551         1.963455         0.595033
 C        -2.307731         2.860660        -0.276197
 C        -2.343752         2.806820        -1.581527
 C        -1.796577         1.689210        -2.393880
 O        -2.096616         0.331139        -1.925354
 C        -1.036690        -0.165276        -1.183893
 H         0.876943        -0.131650         0.376734
 H        -3.124356         0.453173         0.752628
 H        -1.829417         0.492460         2.246012
 H        -0.991036         2.420909         1.456616
 H        -3.028659         3.584722         0.203696
 H        -2.846736         3.676592        -2.109651
 H        -2.346272         1.744504        -3.339099
 H        -0.679681         1.906868        -2.581954
 H        -1.081423        -1.266592        -1.128225
 H        -0.073110         0.046435        -1.635958
