19
Iteration:   536
 O         0.260453         0.158187         0.995726
 C        -0.925357         0.424409         0.305785
 C        -2.366494         0.448239         0.847384
 C        -1.568638         1.768673         0.611725
 C        -1.877891         2.895893        -0.330533
 C        -2.204048         2.781611        -1.611851
 C        -2.255322         1.610127        -2.510420
 O        -2.137195         0.385762        -1.656027
 C        -0.773719         0.172247        -1.169554
 H         0.092781         0.145183         1.916612
 H        -3.133700         0.130346         0.124242
 H        -2.475493         0.081749         1.875092
 H        -1.066837         2.066096         1.492070
 H        -1.822888         3.910791         0.042525
 H        -2.418289         3.675838        -2.139985
 H        -3.266817         1.467328        -2.797839
 H        -1.564363         1.514626        -3.415127
 H        -0.506733        -0.872986        -1.444624
 H         0.037843         0.887008        -1.570742
