19
Iteration:  4766
 O         0.031628        -0.001191         1.098626
 C        -0.969267         0.490574         0.268034
 C        -2.246480         0.622654         1.053749
 C        -1.372807         1.950136         0.742067
 C        -1.932037         2.877475        -0.289246
 C        -2.456568         2.731187        -1.516957
 C        -2.187374         1.663864        -2.474179
 O        -1.911099         0.289122        -2.096564
 C        -0.852383         0.040239        -1.166214
 H         0.776515         0.211094         0.606396
 H        -3.149329         0.585200         0.440473
 H        -2.239266         0.196942         2.050191
 H        -0.710845         2.434281         1.470191
 H        -2.301877         3.777556         0.289479
 H        -2.861231         3.571967        -1.989168
 H        -3.048613         1.507390        -3.063565
 H        -1.421437         2.107057        -3.156549
 H        -0.652752        -1.010165        -1.346348
 H         0.069205         0.412440        -1.516232
