19
Iteration:  1706charge 0 multiplicity 1
 O         0.141502        -0.090622         1.018079
 C        -0.910768         0.486313         0.283117
 C        -2.366333         0.652715         0.875615
 C        -1.627431         1.965758         0.788029
 C        -1.851837         3.069946        -0.225622
 C        -2.212175         2.816056        -1.591636
 C        -2.433987         1.476341        -2.328269
 O        -1.888252         0.201066        -1.982720
 C        -0.764900         0.096314        -1.208835
 H         0.925280         0.482873         0.865798
 H        -3.236115         0.698102         0.143125
 H        -2.420572         0.162686         1.865161
 H        -1.148656         2.349233         1.692317
 H        -1.695047         4.131038         0.051521
 H        -2.261665         3.647178        -2.212492
 H        -3.604933         1.283557        -2.513652
 H        -2.037941         1.581861        -3.360908
 H        -0.366808        -0.881875        -1.279374
 H        -0.006354         0.924372        -1.698978
