19
Iteration:  4577charge 0 multiplicity 1
 O         0.097290         0.015999         1.048241
 C        -0.931805         0.490135         0.282666
 C        -2.196168         0.585986         1.020337
 C        -1.446905         1.891093         0.583692
 C        -2.096509         2.840525        -0.291944
 C        -2.427685         2.843960        -1.598835
 C        -2.052673         1.753159        -2.451347
 O        -2.000509         0.367307        -1.902686
 C        -0.848293        -0.087707        -1.136203
 H         0.866188         0.438767         0.718630
 H        -3.132945         0.286397         0.493992
 H        -2.224370         0.366759         2.125291
 H        -0.836672         2.333666         1.411205
 H        -2.394340         3.756053         0.328460
 H        -3.052167         3.628752        -2.164951
 H        -2.790353         1.626420        -3.260082
 H        -1.061444         2.000577        -3.068559
 H        -0.923735        -1.267068        -0.975523
 H         0.186033        -0.187710        -1.612169
