19
Iteration:  3536
 O         0.092421         0.058488         0.986403
 C        -0.988498         0.501105         0.273673
 C        -2.073698         0.672867         1.179776
 C        -1.384296         1.928216         0.616987
 C        -2.225467         2.828895        -0.203973
 C        -2.432298         2.793038        -1.534173
 C        -1.778837         1.690160        -2.479066
 O        -2.048322         0.360345        -2.105940
 C        -1.104585        -0.144211        -1.135548
 H         0.972595         0.396413         0.548099
 H        -3.038557         0.404176         0.728475
 H        -1.945724         0.199081         2.163875
 H        -0.553484         2.405048         1.330349
 H        -2.570881         3.609303         0.452502
 H        -3.242749         3.462115        -1.991896
 H        -2.239613         1.898591        -3.533574
 H        -0.717422         1.913877        -2.463295
 H        -1.232850        -1.288846        -1.118822
 H        -0.106153        -0.020038        -1.597276
