19
Iteration:  1389
 O         0.204883         0.068266         1.119211
 C        -0.899215         0.491165         0.325992
 C        -2.229978         0.482147         1.011092
 C        -1.521700         1.797211         0.663383
 C        -1.983521         2.868894        -0.352170
 C        -2.158378         2.773148        -1.644160
 C        -2.230062         1.616730        -2.486709
 O        -2.153319         0.433571        -1.851569
 C        -0.901886         0.090106        -1.205973
 H         0.961757         0.555073         0.780880
 H        -3.075922         0.191820         0.397303
 H        -2.356842        -0.012808         1.972718
 H        -1.230648         2.239347         1.629756
 H        -2.040299         3.935520        -0.028105
 H        -2.341523         3.715822        -2.257788
 H        -3.113320         1.756833        -3.071180
 H        -1.335292         1.509492        -3.273239
 H        -0.955661        -1.036938        -1.227310
 H        -0.055563         0.603373        -1.709885
