19
Iteration:   165charge 0 multiplicity 1
 O         0.183599         0.261656         1.003440
 C        -0.920099         0.435850         0.192216
 C        -2.274497         0.418585         0.890207
 C        -1.550211         1.749113         0.663025
 C        -1.967366         2.714450        -0.235919
 C        -2.178482         2.815158        -1.559558
 C        -2.153275         1.652155        -2.490356
 O        -2.109152         0.469848        -1.694804
 C        -0.827565         0.118145        -1.256036
 H         0.058943        -0.611259         1.487198
 H        -3.190673         0.267545         0.330839
 H        -2.500366         0.166886         1.928919
 H        -0.924646         2.171008         1.500100
 H        -2.215496         3.702079         0.264680
 H        -2.559075         3.741400        -2.045464
 H        -3.161684         1.553487        -2.887958
 H        -1.412131         1.570760        -3.404934
 H        -0.517796        -0.916416        -1.438261
 H        -0.118097         0.739694        -1.887224
