19
Iteration:  2381charge 0 multiplicity 1
 O         0.160731        -0.003274         0.922292
 C        -0.966405         0.577998         0.313941
 C        -2.126745         0.573790         1.173155
 C        -1.579534         1.979950         0.770090
 C        -2.177086         2.837827        -0.268567
 C        -2.233560         2.799278        -1.636009
 C        -1.982343         1.622808        -2.532920
 O        -2.056260         0.328447        -2.033058
 C        -0.977342        -0.032907        -1.114910
 H         0.896397         0.547808         0.579491
 H        -3.127639         0.342205         1.006172
 H        -1.746875         0.282464         2.149102
 H        -1.162942         2.487303         1.603247
 H        -2.421274         3.798094         0.240359
 H        -2.678133         3.651154        -2.170765
 H        -2.796093         1.574662        -3.281791
 H        -0.992689         1.719994        -3.065238
 H        -1.002011        -1.141189        -1.014638
 H         0.057511         0.147277        -1.513070
