19
Iteration:    66
 O         0.088093         0.046249         1.100979
 C        -0.950488         0.548768         0.240602
 C        -2.272572         0.521589         0.957663
 C        -1.376002         1.870114         0.761132
 C        -1.894609         2.851561        -0.202714
 C        -2.361513         2.774764        -1.455875
 C        -2.197764         1.621202        -2.508247
 O        -1.991240         0.232578        -2.049923
 C        -0.799561         0.285731        -1.302343
 H        -0.075934        -0.888568         1.051647
 H        -3.288907         0.539404         0.587130
 H        -2.147031         0.243138         1.984271
 H        -0.941353         2.127304         1.717549
 H        -2.279729         3.750566         0.307433
 H        -3.165914         3.395929        -1.775742
 H        -3.180736         1.492971        -2.922202
 H        -1.453855         1.773930        -3.281121
 H        -0.430250        -0.716751        -1.421142
 H        -0.159200         1.057353        -1.726860
