19
Iteration:  4221charge 0 multiplicity 1
 O         0.282422         0.301615         0.898438
 C        -0.978533         0.532768         0.253786
 C        -2.237662         0.399054         1.108463
 C        -1.614830         1.830314         0.632188
 C        -2.164573         2.840369        -0.228170
 C        -2.142037         2.882539        -1.619479
 C        -1.762782         1.661936        -2.483577
 O        -2.215757         0.373952        -1.853205
 C        -1.101419        -0.155666        -1.078638
 H         0.878899         0.742045         0.334876
 H        -3.086493         0.106943         0.484485
 H        -2.091962         0.042604         2.150241
 H        -1.053370         2.331815         1.419450
 H        -2.418751         3.724862         0.165854
 H        -2.434315         3.735653        -2.189320
 H        -2.366613         1.635943        -3.389863
 H        -0.713593         1.419085        -2.790767
 H        -1.351773        -1.269697        -0.967154
 H        -0.226347        -0.243109        -1.728768
