19
Iteration:   857charge 0 multiplicity 1
 O        -0.033435        -0.019835         1.102065
 C        -0.972631         0.597912         0.193737
 C        -2.208232         0.658868         0.979694
 C        -1.399586         1.899027         0.660089
 C        -1.834885         2.921440        -0.309764
 C        -2.472264         2.659468        -1.453969
 C        -2.293152         1.547572        -2.469188
 O        -1.955735         0.294446        -1.953251
 C        -0.750338         0.105813        -1.212930
 H         0.770387         0.538319         1.259956
 H        -3.251211         0.497590         0.701340
 H        -1.873144         0.136213         1.866612
 H        -0.711637         2.222677         1.403648
 H        -1.889694         3.906184         0.122270
 H        -2.732947         3.606558        -1.890264
 H        -3.090520         1.414532        -3.125699
 H        -1.480392         1.860020        -3.223437
 H        -0.668945        -0.944289        -1.175103
 H         0.107020         0.600890        -1.748147
