19
Iteration:  4059charge 0 multiplicity 1
 O         0.182603         0.045396         1.086696
 C        -0.951037         0.474533         0.298331
 C        -2.346160         0.461032         0.878869
 C        -1.682941         1.823151         0.698473
 C        -1.811205         2.914083        -0.301544
 C        -2.076108         2.803829        -1.656170
 C        -2.319531         1.526941        -2.442470
 O        -2.076172         0.330017        -1.779205
 C        -0.781010         0.233935        -1.255553
 H         0.761533         0.756977         1.026711
 H        -3.169559        -0.049305         0.348716
 H        -2.294566         0.213052         1.949679
 H        -1.419951         2.211450         1.659326
 H        -1.961824         3.847053         0.105348
 H        -2.140068         3.729235        -2.165856
 H        -3.404132         1.638533        -2.609761
 H        -1.786175         1.582125        -3.524360
 H        -0.456158        -0.731838        -1.424738
 H        -0.027949         0.859701        -1.693893
