19
Iteration:  2206
 O         0.170921        -0.004240         0.932149
 C        -0.981806         0.541906         0.299952
 C        -2.298643         0.530648         1.017806
 C        -1.469884         1.895866         0.658801
 C        -2.026721         2.945705        -0.292144
 C        -2.248096         2.847732        -1.607307
 C        -2.118390         1.581587        -2.467228
 O        -2.011477         0.285190        -1.831571
 C        -0.905411         0.040646        -1.113908
 H         0.778387         0.712382         0.840255
 H        -3.110817         0.429895         0.243858
 H        -2.497311         0.161126         2.028109
 H        -0.928031         2.408520         1.479990
 H        -2.263537         3.966428         0.121886
 H        -2.849198         3.703470        -1.986753
 H        -2.989241         1.503969        -3.251532
 H        -1.192561         1.674289        -3.221451
 H        -0.789549        -1.044032        -0.931627
 H         0.066219         0.293642        -1.656436
