19
Iteration:  2147
 O         0.039131         0.005017         1.157830
 C        -0.894554         0.534087         0.284820
 C        -2.215859         0.561950         0.985407
 C        -1.518540         1.830093         0.664006
 C        -1.952506         2.847894        -0.345433
 C        -2.100203         2.767032        -1.661523
 C        -2.401511         1.619682        -2.504378
 O        -2.041015         0.315118        -1.865596
 C        -0.744165         0.173841        -1.200202
 H         0.954196         0.469315         1.092178
 H        -3.054238         0.174801         0.431546
 H        -2.149204         0.159776         1.991324
 H        -1.085453         2.180493         1.575676
 H        -2.047395         3.854614         0.003979
 H        -2.336110         3.709695        -2.115975
 H        -3.415660         1.708467        -2.356702
 H        -2.118109         1.701761        -3.648494
 H        -0.595527        -0.890028        -1.204570
 H        -0.008055         0.708794        -1.888519
