19
Iteration:  3754charge 0 multiplicity 1
 O         0.081008        -0.076986         1.102405
 C        -0.882248         0.543857         0.292078
 C        -2.217021         0.662846         0.957145
 C        -1.470921         1.893954         0.629248
 C        -2.093684         2.927594        -0.202745
 C        -2.315786         2.749110        -1.592780
 C        -2.230515         1.584828        -2.460951
 O        -1.969755         0.313547        -2.018849
 C        -0.822432         0.099159        -1.150785
 H         0.943736         0.277626         1.091269
 H        -3.183685         0.401897         0.555409
 H        -2.132827         0.428031         2.025647
 H        -0.967797         2.429891         1.498689
 H        -2.128544         3.869408         0.217529
 H        -2.740532         3.592721        -2.214349
 H        -3.158781         1.525010        -2.965464
 H        -1.506824         1.701678        -3.288739
 H        -0.564023        -1.021427        -1.138813
 H         0.233875         0.388856        -1.549614
