19
Iteration:   320
 O         0.363277         0.193686         0.754941
 C        -1.018057         0.398443         0.258973
 C        -2.225074         0.536570         1.145411
 C        -1.634249         1.865813         0.711616
 C        -2.329275         2.834818        -0.204227
 C        -2.150139         2.808577        -1.564346
 C        -1.863571         1.689708        -2.447993
 O        -2.115599         0.383913        -1.923755
 C        -0.992947        -0.104411        -1.172834
 H         0.474998         0.114754         1.724380
 H        -3.153776         0.385097         0.582347
 H        -2.175845         0.331514         2.212452
 H        -0.917551         2.333951         1.315768
 H        -2.589072         3.824591         0.165122
 H        -2.451576         3.698373        -2.022456
 H        -2.421988         1.868205        -3.367593
 H        -0.786485         1.646358        -2.593369
 H        -1.146059        -1.168497        -1.132458
 H        -0.050307         0.291636        -1.689943
