19
Iteration:  2368
 O         0.217257         0.068964         0.926999
 C        -1.007436         0.499412         0.259368
 C        -2.218981         0.674474         1.256450
 C        -1.513757         1.856233         0.665468
 C        -2.153801         2.866556        -0.239486
 C        -2.243641         2.804768        -1.576414
 C        -1.935889         1.683243        -2.548135
 O        -2.028392         0.269963        -2.003462
 C        -1.023082        -0.057070        -1.152979
 H         0.979507         0.687167         0.746913
 H        -3.243183         0.168523         0.885744
 H        -1.969417         0.467575         2.348920
 H        -0.854017         2.385517         1.444250
 H        -2.936303         3.670067         0.159833
 H        -2.833737         3.663245        -2.006094
 H        -2.654162         1.772606        -3.376158
 H        -0.922622         1.841713        -3.103246
 H        -1.157986        -1.143173        -0.963104
 H        -0.083051         0.049133        -1.666001
