19
Iteration:  1792charge 0 multiplicity 1
 O         0.185762        -0.003163         1.081327
 C        -0.932478         0.509666         0.349271
 C        -2.235672         0.375864         0.943208
 C        -1.535580         1.912877         0.695134
 C        -1.928832         2.923214        -0.355845
 C        -2.201442         2.837187        -1.686825
 C        -2.214549         1.593741        -2.526656
 O        -2.154203         0.375726        -1.803936
 C        -0.830370         0.142860        -1.124914
 H         0.983992         0.285111         0.498303
 H        -3.128312         0.128302         0.347414
 H        -2.408045         0.143285         2.015052
 H        -1.127619         2.330594         1.603442
 H        -2.031547         3.929894         0.066513
 H        -2.594151         3.689185        -2.132430
 H        -3.175400         1.560890        -2.926919
 H        -1.493371         1.557127        -3.378989
 H        -0.719166        -0.949308        -1.194506
 H        -0.078114         0.737131        -1.623995
