19
Iteration:  2948charge 0 multiplicity 1
 O         0.053130        -0.016717         1.228598
 C        -0.880306         0.498229         0.234542
 C        -2.136815         0.521509         0.927027
 C        -1.540816         1.853266         0.725557
 C        -1.941211         2.934167        -0.368972
 C        -2.267639         2.832478        -1.652790
 C        -2.264925         1.560896        -2.469916
 O        -2.092194         0.313449        -1.828714
 C        -0.789894         0.173304        -1.276329
 H         0.905411         0.426736         0.893807
 H        -3.018781         0.183463         0.379736
 H        -2.085364         0.094285         1.983933
 H        -0.985853         2.248940         1.600832
 H        -2.157003         3.862100         0.133076
 H        -2.414949         3.743579        -2.261963
 H        -3.399459         1.570695        -2.880877
 H        -1.530304         1.636441        -3.277591
 H        -0.610571        -0.894709        -1.312863
 H        -0.036804         0.809702        -1.852177
