19
Iteration:   147charge 0 multiplicity 1
 O         0.356404         0.207024         1.126016
 C        -0.853998         0.428830         0.289332
 C        -2.344258         0.366698         0.800972
 C        -1.551952         1.728619         0.662646
 C        -1.999470         2.865574        -0.274134
 C        -2.162824         2.850964        -1.586740
 C        -2.276427         1.640077        -2.480197
 O        -2.202884         0.429071        -1.748175
 C        -0.825565         0.135381        -1.297470
 H         0.019950        -0.233554         1.965491
 H        -3.106973         0.139185         0.038032
 H        -2.439835        -0.095665         1.829665
 H        -1.231718         2.033641         1.651590
 H        -1.827421         3.812651         0.279145
 H        -2.205555         3.842427        -2.118717
 H        -3.138416         1.601223        -3.207796
 H        -1.500269         1.710095        -3.207335
 H        -0.625844        -0.906731        -1.628659
 H        -0.036086         0.653565        -1.789471
