19
Iteration:   785
 O         0.255181         0.186501         0.951162
 C        -1.015719         0.515745         0.271104
 C        -2.185853         0.430294         1.127287
 C        -1.609026         1.826734         0.611047
 C        -1.990307         2.878585        -0.340274
 C        -2.228155         2.824650        -1.678783
 C        -1.953640         1.647774        -2.446261
 O        -2.180907         0.395499        -1.800769
 C        -1.085365        -0.067572        -1.128547
 H         0.995523         0.704290         0.581530
 H        -2.992339        -0.195126         0.711932
 H        -1.928664         0.240913         2.166755
 H        -0.997090         2.245116         1.391053
 H        -2.196791         3.795562         0.137271
 H        -2.452856         3.746603        -2.207710
 H        -2.512986         1.594232        -3.455056
 H        -0.902362         1.584118        -2.756000
 H        -0.964769        -1.203590        -1.085844
 H        -0.243582         0.425961        -1.650319
