19
Iteration:  1342charge 0 multiplicity 1
 O         0.280228         0.081292         1.055961
 C        -0.992791         0.526496         0.293009
 C        -2.377506         0.467924         0.867474
 C        -1.648250         1.875488         0.707983
 C        -1.839968         3.035190        -0.229982
 C        -1.963895         2.723213        -1.579823
 C        -2.386866         1.509560        -2.368859
 O        -2.078694         0.237099        -1.906013
 C        -0.860579         0.137208        -1.244552
 H         0.710079         0.904273         0.953462
 H        -3.226958         0.097729         0.245615
 H        -2.613083         0.139430         1.912451
 H        -1.175628         2.263799         1.584088
 H        -1.680065         4.061442         0.012017
 H        -2.016380         3.546359        -2.342405
 H        -3.506271         1.634794        -2.515750
 H        -1.907955         1.804727        -3.441060
 H        -0.562515        -0.886040        -1.298211
 H        -0.215847         0.947860        -1.623164
