19
Iteration:  2595
 O         0.262874         0.062947         1.009737
 C        -0.973251         0.503657         0.305106
 C        -2.321161         0.583649         0.999878
 C        -1.474512         1.841216         0.671201
 C        -1.994964         2.881224        -0.276390
 C        -2.375928         2.850366        -1.591743
 C        -2.041627         1.585604        -2.499125
 O        -2.149900         0.256003        -1.879636
 C        -0.893858         0.029106        -1.185726
 H         0.769678         0.868574         1.096167
 H        -3.242218         0.404835         0.482788
 H        -2.263378         0.474151         2.076192
 H        -0.936724         2.325269         1.464151
 H        -1.951169         3.847089         0.231588
 H        -2.629207         3.732822        -2.135329
 H        -2.743652         1.663769        -3.375967
 H        -1.005266         1.734052        -2.918421
 H        -0.725004        -1.035162        -1.176561
 H         0.002953         0.493169        -1.679778
