19
Iteration:   208
 O         0.276171        -0.059576         0.958625
 C        -0.907854         0.548954         0.384689
 C        -2.244889         0.662390         1.179525
 C        -1.609651         1.951466         0.804874
 C        -2.098486         2.852057        -0.216899
 C        -2.371604         2.764014        -1.506327
 C        -2.103531         1.667814        -2.545900
 O        -1.980624         0.302935        -2.152314
 C        -0.899488         0.047025        -1.241411
 H         0.673048        -0.542525         0.241376
 H        -3.098113         0.296244         0.614314
 H        -2.325632         0.361128         2.237739
 H        -1.354803         2.320215         1.852714
 H        -2.012084         3.950319         0.045274
 H        -2.753324         3.665967        -2.109284
 H        -2.915531         1.665134        -3.248591
 H        -1.092934         1.917248        -2.961218
 H        -0.995015        -1.053926        -1.176407
 H         0.161346         0.520229        -1.479130
