19
Iteration:  4055
 O         0.167566         0.070918         1.069591
 C        -0.965108         0.465476         0.309556
 C        -2.334723         0.443951         0.904550
 C        -1.710054         1.787045         0.699057
 C        -1.788839         2.900728        -0.307111
 C        -2.075703         2.803794        -1.669714
 C        -2.285620         1.566715        -2.437167
 O        -2.093797         0.336520        -1.773290
 C        -0.789481         0.224914        -1.253675
 H         0.843313         0.863389         0.976229
 H        -3.168594         0.040112         0.364011
 H        -2.271964         0.156212         1.941128
 H        -1.403337         2.126032         1.705960
 H        -1.911865         4.035805         0.010954
 H        -2.174921         3.721075        -2.261341
 H        -3.404835         1.558246        -2.600745
 H        -1.821231         1.478747        -3.396173
 H        -0.239655        -0.793984        -1.494111
 H        -0.047292         0.897824        -1.701698
