19
Iteration:  2874
 O         0.048599        -0.090073         1.029655
 C        -0.971628         0.591039         0.293653
 C        -2.252983         0.566742         0.953587
 C        -1.500415         2.001570         0.773637
 C        -1.901856         2.915308        -0.301264
 C        -2.178963         2.743754        -1.625279
 C        -2.429395         1.476368        -2.403168
 O        -1.907274         0.242797        -2.006037
 C        -0.786060         0.217896        -1.180148
 H         0.554530         0.541722         1.600297
 H        -3.150780         0.343349         0.416786
 H        -2.147929         0.094116         1.946384
 H        -0.946557         2.578792         1.600483
 H        -1.960937         3.895994         0.056439
 H        -2.261805         3.678903        -2.141174
 H        -3.483730         1.376767        -2.534016
 H        -2.135176         1.808933        -3.465878
 H        -0.392815        -0.825352        -1.296943
 H         0.107698         0.819618        -1.473766
