19
Iteration:  4700
 O         0.134836        -0.008731         1.002685
 C        -0.926074         0.516123         0.227486
 C        -2.140493         0.613102         0.987811
 C        -1.491811         1.933344         0.670253
 C        -2.112149         2.814728        -0.275176
 C        -2.398711         2.732398        -1.561831
 C        -1.893631         1.661021        -2.458088
 O        -2.075342         0.413174        -1.895517
 C        -1.029076        -0.008135        -1.142424
 H         1.016774         0.413024         0.716258
 H        -3.084738         0.351104         0.634366
 H        -1.909028         0.309871         1.971776
 H        -1.012220         2.328797         1.528563
 H        -2.679933         3.698482         0.217899
 H        -2.843283         3.563887        -2.002930
 H        -2.456770         1.680212        -3.349463
 H        -0.920926         1.774387        -2.815626
 H        -0.961000        -1.130669        -1.116881
 H        -0.017227         0.308281        -1.651003
