19
Iteration:   831charge 0 multiplicity 1
 O         0.177392        -0.068063         1.098122
 C        -0.901966         0.466856         0.395002
 C        -2.187554         0.694998         1.004126
 C        -1.439414         1.891728         0.599316
 C        -2.122475         2.914845        -0.292052
 C        -2.282974         2.794075        -1.616451
 C        -2.190545         1.622508        -2.443320
 O        -2.048768         0.261418        -1.967353
 C        -0.840912         0.103242        -1.172195
 H         1.023650        -0.032561         0.532585
 H        -3.091739         0.704736         0.414064
 H        -2.392598         0.470498         2.040299
 H        -0.968216         2.358748         1.512013
 H        -2.631620         3.784465         0.302520
 H        -2.804977         3.674753        -2.051574
 H        -3.128786         1.735289        -3.088393
 H        -1.472445         1.586316        -3.277815
 H        -0.755283        -1.014523        -1.230051
 H        -0.054738         0.691194        -1.709857
