19
Iteration:  2084charge 0 multiplicity 1
 O         0.106089        -0.021762         1.112036
 C        -0.958783         0.519682         0.254778
 C        -2.322581         0.694078         0.820914
 C        -1.423260         1.884896         0.756861
 C        -1.841125         2.889515        -0.274823
 C        -2.300038         2.663032        -1.522821
 C        -2.328287         1.526540        -2.444360
 O        -2.051808         0.236391        -1.893750
 C        -0.754469         0.244694        -1.237576
 H         0.715450         0.767132         1.201698
 H        -3.169713         0.716950         0.096000
 H        -2.339517         0.133789         1.777761
 H        -1.014620         2.208560         1.705637
 H        -1.814772         3.930768         0.007200
 H        -2.355560         3.455636        -2.183815
 H        -3.432859         1.346384        -2.922718
 H        -1.783475         1.788914        -3.276703
 H        -0.424231        -0.757740        -1.287285
 H         0.078175         0.815095        -1.615904
