19
Iteration:  2345charge 0 multiplicity 1
 O         0.221094         0.185273         0.943160
 C        -1.044393         0.359722         0.313923
 C        -2.168362         0.678872         1.122154
 C        -1.393011         1.850252         0.620612
 C        -2.177498         2.770493        -0.248220
 C        -2.401260         2.778959        -1.582341
 C        -1.839985         1.682400        -2.446715
 O        -2.098255         0.380779        -2.014269
 C        -1.053654        -0.167836        -1.104718
 H         0.811606         0.920040         0.617699
 H        -3.303510         0.612278         0.681118
 H        -2.088811         0.424356         2.230236
 H        -0.781078         2.480093         1.363228
 H        -2.289066         3.831963         0.288479
 H        -2.925619         3.623204        -2.108492
 H        -2.218503         1.846219        -3.470138
 H        -0.713840         1.912923        -2.608989
 H        -1.229312        -1.257120        -1.136381
 H        -0.108335         0.028794        -1.594892
