19
Iteration:  2091
 O         0.101487         0.005214         1.050890
 C        -0.941867         0.538351         0.293102
 C        -2.367484         0.667872         0.830433
 C        -1.425459         1.881907         0.772243
 C        -1.764488         2.896020        -0.286837
 C        -2.263846         2.621115        -1.533454
 C        -2.403434         1.486986        -2.395984
 O        -1.993388         0.253206        -1.930416
 C        -0.805781         0.270350        -1.211588
 H         0.739045         0.686260         1.206177
 H        -3.215168         0.715079         0.181050
 H        -2.578091         0.337986         1.801293
 H        -1.102139         2.077158         1.790694
 H        -1.907386         3.911309         0.073255
 H        -2.511255         3.557664        -2.139446
 H        -3.261565         1.309745        -2.954288
 H        -1.601463         1.737993        -3.291195
 H        -0.492660        -0.795972        -1.271993
 H         0.057415         0.886169        -1.710716
