19
Iteration:  4309
 O         0.106197        -0.034989         1.014656
 C        -0.902197         0.494294         0.278150
 C        -2.107989         0.699030         1.099210
 C        -1.406126         1.960433         0.586703
 C        -2.188520         2.889761        -0.274140
 C        -2.494332         2.764313        -1.541084
 C        -1.867360         1.682638        -2.449919
 O        -2.036744         0.345488        -2.054544
 C        -1.003123        -0.062985        -1.123486
 H         0.971205         0.047010         0.694725
 H        -3.074646         0.445980         0.587755
 H        -2.019637         0.510827         2.178832
 H        -0.725995         2.368477         1.392659
 H        -2.803719         3.459076         0.325528
 H        -3.269185         3.465330        -2.061164
 H        -2.363602         1.831337        -3.427232
 H        -0.800620         1.889374        -2.430167
 H        -1.216585        -1.231251        -0.784592
 H         0.010648         0.037415        -1.527255
