19
Iteration:   689charge 0 multiplicity 1
 O         0.144578        -0.044841         0.957200
 C        -0.968155         0.452080         0.202204
 C        -2.119296         0.743917         1.196782
 C        -1.372450         1.895485         0.545541
 C        -2.201678         2.815770        -0.251948
 C        -2.453389         2.766179        -1.596215
 C        -1.865891         1.697500        -2.484440
 O        -2.087252         0.381568        -1.926477
 C        -1.004816        -0.056381        -1.140840
 H         0.831256         0.636936         1.209219
 H        -3.114610         0.530311         0.812945
 H        -1.868340         0.537696         2.259160
 H        -0.642935         2.430677         1.186877
 H        -2.895457         3.461189         0.373289
 H        -3.140079         3.525132        -1.945230
 H        -2.136204         1.566685        -3.519091
 H        -0.808044         1.882154        -2.585273
 H        -1.048947        -1.148611        -1.117295
 H        -0.085317         0.330811        -1.602894
