19
Iteration:  4517charge 0 multiplicity 1
 O         0.046937        -0.164032         1.025371
 C        -1.018676         0.524659         0.273497
 C        -2.283563         0.716234         0.976499
 C        -1.365835         1.957040         0.683799
 C        -1.967565         2.946024        -0.254951
 C        -2.424056         2.635769        -1.521850
 C        -2.197125         1.563815        -2.513025
 O        -1.923949         0.291649        -1.969170
 C        -0.774471         0.185558        -1.099836
 H         0.822935         0.391256         0.895764
 H        -3.234418         0.624027         0.527029
 H        -2.113083         0.284216         1.915672
 H        -0.765108         2.360160         1.493514
 H        -2.266674         3.931238         0.158537
 H        -2.800619         3.514140        -2.050822
 H        -3.112371         1.501068        -3.163551
 H        -1.353001         1.924734        -3.220429
 H        -0.567429        -0.849690        -1.134778
 H        -0.017602         0.834539        -1.624117
