19
Iteration:  1282
 O         0.090502        -0.181037         1.207592
 C        -0.918347         0.454151         0.329325
 C        -2.287071         0.690844         0.923839
 C        -1.407432         1.902048         0.599686
 C        -1.865750         2.906723        -0.353897
 C        -2.426942         2.872978        -1.597436
 C        -2.395620         1.567697        -2.483727
 O        -1.983082         0.222899        -1.873021
 C        -0.718187         0.230019        -1.208910
 H         0.914327         0.030961         0.776423
 H        -3.037811         0.490020         0.180036
 H        -2.365120         0.524573         2.012697
 H        -0.973303         2.351984         1.538315
 H        -1.804703         3.917799         0.125990
 H        -2.828341         3.850382        -2.011494
 H        -3.369829         1.402900        -3.047025
 H        -1.608240         1.571128        -3.228106
 H         0.015492        -0.572754        -1.504798
 H        -0.245009         1.173559        -1.468978
