19
Iteration:   757
 O         0.354545         0.305788         0.905977
 C        -0.978293         0.430622         0.277845
 C        -2.188224         0.574653         1.108097
 C        -1.579694         1.835390         0.689788
 C        -2.145538         2.839525        -0.241676
 C        -2.068463         2.850640        -1.564830
 C        -1.978729         1.660162        -2.476283
 O        -2.166464         0.342301        -1.957297
 C        -1.151535        -0.266967        -1.144551
 H         0.559963         1.188501         1.119634
 H        -3.045941         0.340972         0.470720
 H        -2.232680         0.252704         2.136270
 H        -0.767304         2.249430         1.343569
 H        -2.701512         3.713396         0.329335
 H        -2.237910         3.792664        -2.151123
 H        -2.690715         1.795657        -3.242982
 H        -1.014422         1.615742        -3.039428
 H        -1.402815        -1.289795        -1.003944
 H        -0.202030        -0.195118        -1.700843
