19
Iteration:   975
 O         0.276885         0.174304         1.005617
 C        -0.952978         0.421341         0.286769
 C        -2.360117         0.478966         0.929802
 C        -1.603674         1.760923         0.677699
 C        -1.889624         2.885570        -0.241148
 C        -2.031365         2.836762        -1.615075
 C        -2.276292         1.561327        -2.487651
 O        -2.150497         0.304149        -1.824915
 C        -0.863784         0.119663        -1.161873
 H         0.840029         0.999125         0.892225
 H        -3.243588         0.163328         0.337177
 H        -2.530417         0.431655         2.000212
 H        -1.215169         2.202773         1.575077
 H        -1.873566         3.862224         0.292404
 H        -2.240888         3.769530        -2.080724
 H        -3.384778         1.651560        -2.883750
 H        -1.681464         1.582222        -3.422984
 H        -0.666913        -0.942129        -1.339535
 H        -0.101597         0.762014        -1.695278
