19
Iteration:  1107charge 0 multiplicity 1
 O         0.231221         0.139468         0.866157
 C        -1.037837         0.545831         0.221674
 C        -2.225978         0.611150         1.178409
 C        -1.353501         1.950975         0.689290
 C        -2.171996         2.857458        -0.245182
 C        -2.376485         2.689064        -1.549453
 C        -1.746951         1.728141        -2.448086
 O        -2.062202         0.347676        -2.018355
 C        -1.150654        -0.178976        -1.086309
 H         0.839691         0.037162         0.030809
 H        -3.240496         0.522409         0.721531
 H        -2.155209         0.665655         2.295771
 H        -0.697168         2.356599         1.463390
 H        -2.836344         3.552905         0.229137
 H        -3.185204         3.386063        -1.908217
 H        -2.223656         1.688615        -3.512356
 H        -0.679853         1.915495        -2.533310
 H        -1.521686        -1.154254        -0.789660
 H        -0.055473        -0.283697        -1.468655
