19
Iteration:  2677
 O         0.224430         0.105694         0.973055
 C        -0.949523         0.476730         0.288785
 C        -2.139723         0.642387         1.180120
 C        -1.435721         1.874105         0.533249
 C        -2.177419         2.798276        -0.310350
 C        -2.444467         2.811634        -1.636927
 C        -1.811465         1.723153        -2.425352
 O        -2.072851         0.370764        -1.950896
 C        -1.147694        -0.120827        -1.137558
 H         0.947261         0.079229         0.382258
 H        -3.156175         0.302891         0.800076
 H        -1.971672         0.447726         2.312810
 H        -0.900343         2.490648         1.364430
 H        -2.525360         3.641275         0.350640
 H        -3.334722         3.414553        -2.005476
 H        -1.909301         1.770704        -3.514960
 H        -0.666513         1.849148        -2.083411
 H        -1.377259        -1.231757        -1.059802
 H        -0.076744         0.070516        -1.587758
