19
Iteration:   800
 O         0.190444         0.085712         0.930681
 C        -0.909528         0.486539         0.336559
 C        -2.169413         0.449757         1.089639
 C        -1.585811         1.872342         0.714259
 C        -2.029168         2.872264        -0.365458
 C        -2.285217         2.808540        -1.690686
 C        -2.013558         1.584182        -2.564778
 O        -2.145475         0.431655        -1.770244
 C        -0.952829         0.047546        -1.077463
 H         0.837625         0.157894         0.256418
 H        -3.092958         0.397986         0.558747
 H        -2.173997         0.134321         2.129647
 H        -1.127522         2.360096         1.619326
 H        -2.269723         3.949078         0.086064
 H        -2.643350         3.723079        -2.223007
 H        -2.715510         1.550370        -3.373493
 H        -0.938048         1.766577        -3.043804
 H        -1.118547        -1.010755        -1.049908
 H         0.051078         0.161306        -1.601566
