19
Iteration:  4966
 O         0.105676        -0.046495         1.238741
 C        -0.863270         0.448358         0.233060
 C        -2.180508         0.646545         1.017985
 C        -1.414365         1.850026         0.577862
 C        -2.159515         2.807383        -0.289676
 C        -2.399507         2.903965        -1.584351
 C        -2.048121         1.768369        -2.462580
 O        -2.026312         0.354034        -1.943978
 C        -0.856573        -0.052488        -1.252496
 H         1.019160         0.204127         0.790989
 H        -3.219280         0.568535         0.630750
 H        -2.097238         0.255865         2.064385
 H        -0.836214         2.480375         1.239375
 H        -2.477131         3.629036         0.338978
 H        -3.262916         3.522852        -2.075685
 H        -2.835506         1.640120        -3.120681
 H        -1.254126         1.858732        -3.140811
 H        -0.896330        -1.084810        -1.236817
 H        -0.159336         0.455007        -1.854016
