19
Iteration:  1921charge 0 multiplicity 1
 O         0.206666         0.043899         0.920677
 C        -0.951577         0.440171         0.299544
 C        -2.125802         0.641255         1.149249
 C        -1.479098         1.883885         0.623925
 C        -2.283182         2.853433        -0.288074
 C        -2.396522         2.750188        -1.613676
 C        -1.780632         1.663104        -2.491997
 O        -2.122212         0.419992        -1.918481
 C        -1.058620        -0.011836        -1.071688
 H         0.882425         0.043111         0.284894
 H        -3.120702         0.383593         0.811261
 H        -2.003778         0.316363         2.198832
 H        -0.758189         2.495135         1.133011
 H        -2.374226         3.745507         0.272547
 H        -2.927027         3.531786        -2.083851
 H        -1.922069         1.803267        -3.545850
 H        -0.715682         1.745679        -2.481633
 H        -1.231414        -1.157395        -1.022168
 H        -0.099054        -0.048288        -1.665490
