19
Iteration:  1202
 O         0.299467         0.134299         0.884384
 C        -0.998502         0.411742         0.376260
 C        -2.262508         0.623759         1.152831
 C        -1.481756         1.830853         0.659934
 C        -2.063173         2.866715        -0.290338
 C        -2.303702         2.809464        -1.618421
 C        -1.891990         1.721585        -2.558113
 O        -2.175904         0.302751        -1.935660
 C        -1.014679        -0.105738        -1.104943
 H         0.691690         0.994046         0.880964
 H        -3.216994         0.491909         0.614198
 H        -2.339821         0.547775         2.253180
 H        -0.954617         2.247616         1.498140
 H        -2.345345         3.679965         0.323992
 H        -2.986880         3.604266        -2.015103
 H        -2.471494         1.852051        -3.424070
 H        -0.843353         1.619423        -2.851163
 H        -1.015537        -1.257341        -1.060888
 H        -0.112669         0.241751        -1.587182
