19
Iteration:  1442
 O         0.139519        -0.056452         0.951522
 C        -0.952861         0.539105         0.282509
 C        -2.222625         0.713295         1.124748
 C        -1.419521         1.941453         0.611801
 C        -2.026870         2.823804        -0.266579
 C        -2.502963         2.667475        -1.515080
 C        -1.958313         1.681566        -2.510178
 O        -1.968634         0.374062        -1.984571
 C        -1.020854        -0.052960        -1.107499
 H         0.936630         0.300823         0.581518
 H        -3.191572         0.637345         0.588610
 H        -2.158646         0.497144         2.211933
 H        -0.831836         2.427619         1.397903
 H        -2.364694         3.790209         0.100297
 H        -3.039669         3.648548        -1.839009
 H        -2.624054         1.788650        -3.433375
 H        -0.912919         1.891617        -2.816410
 H        -1.126864        -1.148882        -1.024590
 H         0.012464         0.233043        -1.454097
