19
Iteration:  2907charge 0 multiplicity 1
 O         0.154660        -0.074408         1.055875
 C        -1.011563         0.445565         0.326538
 C        -2.388844         0.677808         0.827954
 C        -1.505964         1.979744         0.765849
 C        -1.820246         2.920678        -0.330482
 C        -2.271666         2.766510        -1.540274
 C        -2.386889         1.497841        -2.390116
 O        -1.947010         0.230053        -1.953448
 C        -0.709534         0.217860        -1.177567
 H         0.887376         0.436736         0.801980
 H        -3.287929         0.585059         0.299340
 H        -2.419457         0.221070         1.805162
 H        -1.005839         2.438685         1.695695
 H        -1.943031         3.894138         0.024397
 H        -2.683151         3.587099        -2.048289
 H        -3.332787         1.164262        -2.599998
 H        -1.813814         1.745090        -3.343929
 H        -0.289817        -0.799757        -1.269683
 H        -0.107136         1.073572        -1.560079
