19
Iteration:   105
 O         0.252505         0.024968         0.837246
 C        -0.997258         0.523755         0.286295
 C        -2.344128         0.475013         1.069968
 C        -1.674993         1.847879         0.845979
 C        -1.999995         2.872231        -0.260947
 C        -2.190927         2.788636        -1.573706
 C        -2.311981         1.590211        -2.484691
 O        -1.900788         0.381140        -1.972431
 C        -0.769827         0.198341        -1.202679
 H         0.136782        -0.582439         1.650282
 H        -3.264992         0.170845         0.557182
 H        -2.168245         0.208822         2.139022
 H        -1.235407         2.285807         1.729059
 H        -1.657293         3.837842         0.060758
 H        -2.209084         3.788995        -2.062892
 H        -3.392702         1.500804        -2.754287
 H        -1.770827         1.852726        -3.440976
 H        -0.563387        -0.920578        -1.108749
 H         0.159275         0.729111        -1.556241
