19
Iteration:  2980
 O         0.296121         0.015671         0.968161
 C        -0.976943         0.465934         0.313650
 C        -2.310230         0.583900         0.957639
 C        -1.532520         1.802530         0.662717
 C        -2.000676         2.806460        -0.317209
 C        -2.262516         2.829261        -1.674822
 C        -2.118510         1.655837        -2.486181
 O        -2.102070         0.349904        -1.813176
 C        -0.898216         0.114117        -1.068136
 H         0.798842         0.828854         0.908842
 H        -3.212794         0.196063         0.451686
 H        -2.239717         0.402456         2.109178
 H        -1.199046         2.347942         1.561844
 H        -2.281740         3.750038         0.192751
 H        -2.373210         3.793750        -2.236597
 H        -3.117911         1.474852        -3.176132
 H        -1.258834         1.738611        -3.188613
 H        -0.963569        -0.987018        -1.068027
 H         0.126703         0.422888        -1.461565
