19
Iteration:  1570charge 0 multiplicity 1
 O         0.186064         0.259814         1.006186
 C        -1.024262         0.501603         0.211164
 C        -2.149583         0.434382         1.163675
 C        -1.558015         1.837835         0.611499
 C        -2.057215         2.941091        -0.229330
 C        -2.135471         2.856441        -1.550123
 C        -1.923290         1.617509        -2.506375
 O        -2.156882         0.336169        -1.927804
 C        -1.103765        -0.185888        -1.198759
 H         0.935452         0.740847         0.484759
 H        -3.239955         0.277661         0.900203
 H        -2.022936         0.343558         2.258716
 H        -0.935668         2.183876         1.396629
 H        -2.349402         3.876598         0.255822
 H        -2.533633         3.783755        -2.095911
 H        -2.684250         1.831864        -3.297114
 H        -0.887957         1.579603        -3.030377
 H        -0.970486        -1.228394        -1.072920
 H        -0.179119        -0.038892        -1.850017
