19
Iteration:  2890charge 0 multiplicity 1
 O         0.068568        -0.114650         0.973523
 C        -0.959933         0.595323         0.294796
 C        -2.338800         0.675601         0.996772
 C        -1.531864         1.857647         0.662887
 C        -1.910708         2.995261        -0.285677
 C        -2.238081         2.753449        -1.532160
 C        -2.406109         1.486799        -2.389163
 O        -1.854946         0.192288        -1.964386
 C        -0.721904         0.243007        -1.166190
 H         0.776364         0.476409         1.150389
 H        -3.193349         0.485156         0.285393
 H        -2.529750         0.505825         2.051725
 H        -1.165137         2.150249         1.624971
 H        -1.637471         4.056790         0.060457
 H        -2.400038         3.602661        -2.259700
 H        -3.577736         1.464950        -2.621221
 H        -2.042303         1.607769        -3.403112
 H        -0.263163        -0.780824        -1.136044
 H         0.093439         0.810718        -1.651445
