19
Iteration:  2678
 O         0.217403         0.102768         0.973526
 C        -0.949661         0.482605         0.288629
 C        -2.131495         0.640300         1.173305
 C        -1.435036         1.884740         0.540583
 C        -2.176787         2.788525        -0.321003
 C        -2.443674         2.809714        -1.637366
 C        -1.818043         1.728068        -2.413769
 O        -2.073843         0.373510        -1.950409
 C        -1.148999        -0.122814        -1.135922
 H         0.951353         0.101848         0.358917
 H        -3.143056         0.297957         0.770055
 H        -1.971468         0.449171         2.299555
 H        -0.874247         2.493338         1.384516
 H        -2.528354         3.608812         0.338953
 H        -3.316729         3.394241        -2.003351
 H        -1.893473         1.758785        -3.516301
 H        -0.661519         1.850598        -2.065342
 H        -1.387734        -1.237557        -1.053869
 H        -0.045913         0.052883        -1.599192
