19
Iteration:  2022charge 0 multiplicity 1
 O         0.219738         0.040395         1.013209
 C        -0.951154         0.435259         0.336285
 C        -2.264302         0.599175         1.067038
 C        -1.468515         1.809154         0.737194
 C        -2.023650         2.850030        -0.353275
 C        -2.324071         2.826834        -1.675506
 C        -2.188352         1.599246        -2.563487
 O        -2.065086         0.370512        -1.831236
 C        -0.872165         0.112719        -1.109070
 H         0.914905         0.238662         0.292952
 H        -3.013829         0.369834         0.239446
 H        -2.717557         0.304053         2.058734
 H        -1.115846         2.310678         1.656601
 H        -2.116679         3.814981         0.200137
 H        -2.460260         3.784296        -2.295254
 H        -2.860824         1.551705        -3.352423
 H        -1.070285         1.780449        -3.015429
 H        -0.811344        -1.079096        -1.041609
 H         0.067615         0.478619        -1.692101
