19
Iteration:  1853charge 0 multiplicity 1
 O         0.216082         0.085820         0.995301
 C        -1.016914         0.477916         0.333072
 C        -2.273809         0.663446         1.123757
 C        -1.440072         1.846181         0.685636
 C        -1.948411         2.836694        -0.267933
 C        -2.469490         2.768596        -1.517548
 C        -1.941963         1.633772        -2.533562
 O        -2.080230         0.329191        -2.056194
 C        -1.001790        -0.028955        -1.175715
 H         0.895628         0.816503         0.870067
 H        -3.195769         0.407007         0.645709
 H        -2.052224         0.431105         2.116488
 H        -0.748040         2.312372         1.423073
 H        -2.109464         3.800454         0.218885
 H        -3.116698         3.658610        -1.822211
 H        -2.507306         1.725469        -3.530271
 H        -0.956909         1.921682        -2.786334
 H        -1.122802        -1.121940        -1.137818
 H         0.030772        -0.047914        -1.576300
