19
Iteration:  4057
 O         0.175393         0.056988         1.078623
 C        -0.959132         0.469168         0.304837
 C        -2.341403         0.454274         0.891342
 C        -1.697858         1.804896         0.700396
 C        -1.796978         2.908088        -0.300880
 C        -2.078344         2.807434        -1.668690
 C        -2.301444         1.545388        -2.437549
 O        -2.084832         0.333478        -1.775377
 C        -0.782959         0.231867        -1.259575
 H         0.808578         0.823206         0.998634
 H        -3.166566        -0.011982         0.362518
 H        -2.278001         0.188059         1.940244
 H        -1.419531         2.163242         1.673808
 H        -1.947956         3.947116         0.052975
 H        -2.151382         3.681830        -2.184422
 H        -3.412963         1.607225        -2.597193
 H        -1.793955         1.526167        -3.482049
 H        -0.341970        -0.748468        -1.465202
 H        -0.060850         0.836946        -1.679283
