19
Iteration:  2311
 O         0.204426         0.033076         0.967679
 C        -0.851333         0.491054         0.220409
 C        -2.074917         0.624706         0.990488
 C        -1.493211         1.997911         0.574219
 C        -2.332603         2.948221        -0.256965
 C        -2.363687         2.797470        -1.577299
 C        -1.749533         1.669795        -2.323797
 O        -2.133810         0.362208        -1.938848
 C        -1.099883        -0.175632        -1.087087
 H         0.936232         0.291743         0.420225
 H        -3.068932         0.237316         0.466116
 H        -1.956751         0.388495         2.089739
 H        -0.974948         2.383656         1.506008
 H        -2.749505         3.937690         0.094979
 H        -3.184414         3.305725        -2.065192
 H        -2.175256         1.676783        -3.326366
 H        -0.619392         1.644111        -2.440346
 H        -1.365481        -1.221569        -0.809186
 H        -0.205548        -0.284910        -1.655075
