19
Iteration:  4746charge 0 multiplicity 1
 O         0.053615        -0.104177         1.097630
 C        -0.940918         0.460463         0.273663
 C        -2.232288         0.757953         0.998887
 C        -1.356700         1.900577         0.564196
 C        -2.072107         2.914423        -0.208674
 C        -2.523069         2.732324        -1.480679
 C        -2.121320         1.636528        -2.515662
 O        -1.907961         0.343156        -2.010469
 C        -0.806586         0.058062        -1.149432
 H         0.872791         0.211035         0.689757
 H        -3.269824         0.574677         0.532039
 H        -2.123309         0.520793         2.108428
 H        -0.792249         2.212041         1.498329
 H        -2.065977         3.853904         0.351628
 H        -3.272889         3.408630        -1.918290
 H        -2.852596         1.584394        -3.333348
 H        -1.300624         1.975332        -3.055518
 H        -0.870287        -0.986138        -1.138940
 H         0.166356         0.212759        -1.691879
