19
Iteration:  1136
 O         0.306968         0.254240         0.850499
 C        -1.003879         0.468963         0.246362
 C        -2.176152         0.542337         1.222525
 C        -1.558438         1.854205         0.584222
 C        -2.241178         2.847701        -0.247461
 C        -2.260433         2.830497        -1.607350
 C        -1.720517         1.681680        -2.411673
 O        -2.182999         0.373663        -1.924092
 C        -1.157685        -0.210507        -1.109818
 H         0.892772         0.036504         0.081618
 H        -3.111264         0.238007         0.806745
 H        -2.035284         0.567487         2.309403
 H        -0.966645         2.319242         1.362026
 H        -2.475548         3.801740         0.185144
 H        -2.423270         3.759913        -2.145451
 H        -2.012662         1.712328        -3.434030
 H        -0.592277         1.743266        -2.425921
 H        -1.494818        -1.279559        -0.949490
 H        -0.167342        -0.196933        -1.513912
