19
Iteration:  4258charge 0 multiplicity 1
 O         0.313510         0.211762         0.849220
 C        -1.029370         0.520405         0.331623
 C        -2.205507         0.482907         1.240455
 C        -1.614529         1.835122         0.598462
 C        -2.221836         2.820099        -0.254757
 C        -2.155219         2.829924        -1.624480
 C        -1.738774         1.671494        -2.495171
 O        -2.142079         0.350879        -1.991983
 C        -1.170413        -0.127336        -1.101469
 H         1.008372         0.807051         0.539486
 H        -3.168756         0.025854         0.995471
 H        -1.949117         0.276581         2.261984
 H        -1.081729         2.411045         1.436867
 H        -2.555857         3.774179         0.344499
 H        -2.692021         3.792351        -1.927704
 H        -2.365991         1.883595        -3.403379
 H        -0.611108         1.687312        -2.857709
 H        -1.433017        -1.065490        -0.773426
 H        -0.083582        -0.065956        -1.454769
