19
Iteration:  2127
 O         0.143147        -0.072158         1.032898
 C        -0.957639         0.480598         0.291065
 C        -2.318200         0.589704         0.975176
 C        -1.564684         1.901433         0.746972
 C        -1.914325         2.993361        -0.324106
 C        -2.144028         2.819298        -1.635509
 C        -2.452151         1.473812        -2.377719
 O        -1.919652         0.263386        -1.967513
 C        -0.792891         0.165441        -1.174678
 H         0.746914         0.681380         1.158437
 H        -3.291921         0.487894         0.462852
 H        -2.294591         0.335257         2.077130
 H        -1.155368         2.385236         1.632208
 H        -1.792014         4.036442        -0.050691
 H        -2.016141         3.619193        -2.277118
 H        -3.581847         1.426583        -2.615779
 H        -1.878620         1.740408        -3.342327
 H        -0.396335        -0.813269        -1.242779
 H        -0.000768         0.863401        -1.639308
