19
Iteration:  4489charge 0 multiplicity 1
 O         0.155787        -0.078435         1.099502
 C        -0.951252         0.568722         0.307489
 C        -2.306543         0.620058         0.986353
 C        -1.544068         1.831083         0.690344
 C        -1.950931         2.897972        -0.297254
 C        -2.199500         2.884156        -1.617677
 C        -2.357721         1.549340        -2.490720
 O        -1.965422         0.281723        -1.964296
 C        -0.787253         0.120069        -1.177483
 H         0.825618         0.512753         1.279292
 H        -3.242901         0.235803         0.506043
 H        -2.096096         0.325677         2.054429
 H        -1.055981         2.318306         1.529560
 H        -2.110658         3.862647         0.361477
 H        -2.436085         3.821851        -2.101167
 H        -3.300681         1.538569        -3.010779
 H        -1.816056         1.756012        -3.432421
 H        -0.465326        -1.020165        -1.200384
 H         0.007463         0.650597        -1.738350
