19
Iteration:  1020
 O         0.229208        -0.022195         1.078667
 C        -0.915514         0.525066         0.289832
 C        -2.230792         0.627994         1.046846
 C        -1.410686         1.945129         0.668780
 C        -2.095487         2.927086        -0.219011
 C        -2.319064         2.850502        -1.533352
 C        -2.056998         1.620271        -2.546613
 O        -2.128723         0.277243        -1.983622
 C        -0.948639        -0.020698        -1.194156
 H         1.076788         0.020595         0.553850
 H        -3.026768         0.227618         0.415238
 H        -2.315010         0.285824         2.141381
 H        -1.211805         2.304862         1.653353
 H        -2.354300         3.903057         0.139247
 H        -2.879547         3.617681        -2.030645
 H        -2.858006         1.677920        -3.393134
 H        -1.132754         1.726960        -3.117071
 H        -0.860219        -1.066619        -1.008538
 H        -0.133329         0.435507        -1.794418
