19
Iteration:  3705charge 0 multiplicity 1
 O         0.026012        -0.135364         1.244101
 C        -0.874917         0.557145         0.322914
 C        -2.256687         0.685510         0.782979
 C        -1.460813         1.896818         0.689165
 C        -1.864218         2.877836        -0.330900
 C        -2.297933         2.681347        -1.508863
 C        -2.411242         1.525605        -2.388290
 O        -1.953111         0.244691        -1.970954
 C        -0.772568         0.347802        -1.263970
 H         0.933540         0.236176         0.857316
 H        -3.034889         0.446311         0.037674
 H        -2.466569         0.308493         1.780755
 H        -1.148918         2.275543         1.635953
 H        -1.847484         3.952695         0.122192
 H        -2.505512         3.629698        -2.063438
 H        -3.509661         1.248298        -2.718182
 H        -1.867330         1.635093        -3.259327
 H        -0.136334        -0.475588        -1.327400
 H        -0.136354         1.037326        -1.839433
