19
Iteration:  2485charge 0 multiplicity 1
 O         0.169309        -0.058429         1.040729
 C        -0.967491         0.545974         0.301546
 C        -2.304079         0.598051         0.894376
 C        -1.472205         1.930227         0.705498
 C        -1.901152         2.916148        -0.259261
 C        -2.185005         2.713353        -1.584926
 C        -2.374545         1.515927        -2.476363
 O        -2.005345         0.224143        -1.928893
 C        -0.813346         0.245097        -1.138666
 H         0.820458         0.689608         1.252986
 H        -3.335436         0.444087         0.451842
 H        -2.401965         0.225465         1.968612
 H        -1.202830         2.406315         1.703122
 H        -1.961600         3.989376         0.108213
 H        -2.374682         3.585882        -2.232584
 H        -3.391327         1.318067        -2.886227
 H        -1.870454         1.688419        -3.503598
 H        -0.420393        -0.798516        -1.221576
 H        -0.080060         1.128717        -1.512470
