19
Iteration:  4454
 O         0.174556         0.201033         1.107123
 C        -0.908608         0.533125         0.301810
 C        -2.356094         0.408265         0.846910
 C        -1.626483         1.763914         0.711757
 C        -1.794555         2.833886        -0.273494
 C        -2.086395         2.824318        -1.615098
 C        -2.302274         1.572530        -2.512488
 O        -2.150888         0.324262        -1.778465
 C        -0.864856         0.177899        -1.235907
 H         0.906408         0.673780         0.767453
 H        -3.107043         0.102301         0.143881
 H        -2.415433        -0.065211         1.799024
 H        -1.179082         2.092611         1.617130
 H        -1.730147         3.806770         0.038060
 H        -2.074591         3.765615        -2.044154
 H        -3.279466         1.411363        -2.952884
 H        -1.425291         1.554123        -3.171209
 H        -0.551926        -0.968699        -1.248634
 H        -0.070826         0.777631        -1.655858
