19
Iteration:   412
 O         0.107901        -0.016990         0.988579
 C        -0.902531         0.549024         0.191380
 C        -2.213995         0.538114         0.914966
 C        -1.491117         1.930958         0.694449
 C        -2.099276         2.950863        -0.271660
 C        -2.426902         2.827559        -1.580777
 C        -2.030183         1.588738        -2.395677
 O        -2.073454         0.311151        -1.755809
 C        -0.820213         0.033266        -1.215211
 H         0.856374         0.538854         0.922714
 H        -2.991229         0.340406         0.189582
 H        -2.134974         0.066161         1.867621
 H        -0.909735         2.208431         1.628604
 H        -2.161097         3.932619         0.246672
 H        -2.796539         3.687453        -2.236886
 H        -2.602795         1.300171        -3.305583
 H        -1.030224         1.756243        -2.794176
 H        -0.829707        -1.093289        -1.194062
 H         0.037078         0.452654        -1.867790
