19
Iteration:  3206
 O         0.170767         0.009986         1.064036
 C        -0.925493         0.430491         0.227141
 C        -2.254603         0.522162         1.013226
 C        -1.559015         1.785230         0.663325
 C        -2.004425         2.878805        -0.288695
 C        -2.159135         2.893737        -1.690019
 C        -2.176240         1.558548        -2.507236
 O        -2.100222         0.412465        -1.751372
 C        -0.860891         0.159484        -1.185306
 H         0.913145         0.716248         0.918147
 H        -3.132915         0.191046         0.415777
 H        -2.127504         0.099259         2.016799
 H        -1.155018         2.224811         1.523368
 H        -2.353578         3.791874         0.256525
 H        -2.597963         3.716620        -2.210202
 H        -3.128996         1.462190        -3.194743
 H        -1.283948         1.443569        -3.133025
 H        -0.723927        -0.947102        -1.383341
 H        -0.074430         0.719615        -1.769203
