19
Iteration:  3113
 O         0.112288         0.028417         0.921547
 C        -0.986991         0.520890         0.237940
 C        -2.120883         0.715580         1.196509
 C        -1.416067         1.917130         0.551365
 C        -2.264227         2.903061        -0.181223
 C        -2.359135         2.788032        -1.490638
 C        -1.795427         1.747145        -2.441286
 O        -2.066287         0.280355        -2.044171
 C        -0.996226        -0.202337        -1.176223
 H         0.815775         0.455984         0.516446
 H        -3.098293         0.666869         0.789963
 H        -1.932673         0.475253         2.196504
 H        -0.724074         2.479144         1.312500
 H        -2.820481         3.524255         0.446102
 H        -3.158333         3.331148        -1.996056
 H        -2.414684         1.772344        -3.336901
 H        -0.703214         1.897969        -2.564728
 H        -1.308883        -1.185491        -0.889401
 H         0.059243        -0.113875        -1.653997
