19
Iteration:  3844
 O         0.253634         0.188515         0.911426
 C        -0.923304         0.597280         0.268630
 C        -2.089331         0.489139         1.101984
 C        -1.618573         1.855055         0.612152
 C        -2.255713         2.810474        -0.278125
 C        -2.196516         2.828525        -1.557066
 C        -1.736847         1.665842        -2.471323
 O        -2.109499         0.420146        -1.941585
 C        -1.243067        -0.203781        -1.040304
 H         0.911861         0.705532         0.534864
 H        -2.976470         0.148435         0.573858
 H        -2.003409         0.481126         2.196280
 H        -1.015032         2.312600         1.306200
 H        -2.845027         3.577268         0.279847
 H        -2.601127         3.668801        -2.078862
 H        -2.247043         1.785220        -3.391311
 H        -0.703372         1.705308        -2.601451
 H        -1.568323        -1.298664        -1.079113
 H        -0.313056        -0.407781        -1.666746
