19
Iteration:  4444charge 0 multiplicity 1
 O         0.225536         0.209213         1.086200
 C        -0.973962         0.489391         0.222749
 C        -2.354798         0.412865         0.849955
 C        -1.686149         1.748103         0.675865
 C        -1.806521         2.833569        -0.299586
 C        -2.088298         2.800539        -1.606980
 C        -2.224848         1.605437        -2.474802
 O        -2.180051         0.298744        -1.726926
 C        -0.803425         0.218361        -1.155842
 H         0.923720         0.613049         0.682434
 H        -3.239308         0.212702         0.262554
 H        -2.341211         0.106902         1.884209
 H        -1.424448         2.100373         1.622329
 H        -1.660739         3.760943         0.272038
 H        -2.013343         3.650801        -2.144310
 H        -3.171661         1.682677        -3.038335
 H        -1.582500         1.612430        -3.385964
 H        -0.583463        -0.966367        -1.335557
 H        -0.195829         0.719600        -1.867993
