19
Iteration:  3954charge 0 multiplicity 1
 O         0.118146        -0.028324         1.061917
 C        -0.933900         0.468880         0.317233
 C        -2.215112         0.708914         1.036212
 C        -1.323512         1.899614         0.661262
 C        -2.084191         2.845685        -0.267110
 C        -2.542961         2.782129        -1.590849
 C        -1.962763         1.718434        -2.481043
 O        -2.053833         0.314523        -1.987347
 C        -0.924592        -0.037902        -1.187226
 H         0.913033         0.366602         0.712159
 H        -3.129917         0.741016         0.413748
 H        -2.276002         0.304852         2.058791
 H        -0.776673         2.264822         1.526343
 H        -2.566570         3.709467         0.341039
 H        -3.166726         3.641251        -2.055433
 H        -2.350953         1.634411        -3.516034
 H        -0.796892         1.911210        -2.528760
 H        -0.844852        -1.203506        -1.188879
 H        -0.007855         0.336422        -1.594560
