19
Iteration:  2900charge 0 multiplicity 1
 O         0.146130        -0.111894         1.023163
 C        -0.983151         0.496569         0.280222
 C        -2.416754         0.681872         0.889494
 C        -1.516860         1.961452         0.719937
 C        -1.845026         2.948739        -0.278721
 C        -2.262995         2.746441        -1.581755
 C        -2.396980         1.507525        -2.376097
 O        -1.898871         0.186910        -1.948936
 C        -0.702358         0.215156        -1.162101
 H         0.823473         0.548456         0.843333
 H        -3.400993         0.627966         0.375521
 H        -2.399163         0.321185         1.895448
 H        -1.217592         2.447683         1.656143
 H        -1.765196         4.044397         0.073190
 H        -2.673606         3.651504        -2.053398
 H        -3.514610         1.353422        -2.579837
 H        -1.884301         1.816833        -3.322135
 H        -0.247751        -0.808578        -1.325305
 H         0.005985         1.006317        -1.418877
