19
Iteration:  2668
 O         0.281490         0.125459         0.978018
 C        -0.976945         0.417588         0.288906
 C        -2.200922         0.653388         1.247289
 C        -1.467930         1.799971         0.488086
 C        -2.208859         2.919422        -0.243748
 C        -2.469589         2.811841        -1.586138
 C        -1.747148         1.687148        -2.503995
 O        -2.114758         0.373117        -1.995199
 C        -1.081180        -0.133704        -1.100899
 H         0.973319        -0.077706         0.384478
 H        -3.271176         0.392139         0.978447
 H        -1.933248         0.552986         2.350478
 H        -0.838524         2.354381         1.329213
 H        -2.587133         3.781491         0.313425
 H        -3.110465         3.563945        -2.072958
 H        -2.140436         1.783513        -3.542405
 H        -0.554003         1.881974        -2.579511
 H        -1.157467        -1.270474        -1.085133
 H        -0.037394         0.115043        -1.655007
