19
Iteration:  1631charge 0 multiplicity 1
 O         0.097201        -0.165077         1.012961
 C        -0.903687         0.548260         0.280469
 C        -2.213314         0.588072         0.953280
 C        -1.511507         1.914649         0.671163
 C        -1.993022         2.899272        -0.360505
 C        -2.289356         2.817607        -1.636598
 C        -2.209553         1.585813        -2.450399
 O        -2.042170         0.319700        -1.787525
 C        -0.793754         0.164152        -1.156892
 H         0.799046         0.544626         1.159083
 H        -3.153897         0.479840         0.376094
 H        -2.136241         0.385106         2.015631
 H        -1.059806         2.400131         1.541041
 H        -2.222479         3.858550         0.085949
 H        -2.644865         3.697223        -2.101370
 H        -3.187268         1.429943        -2.995294
 H        -1.442296         1.639249        -3.247920
 H        -0.661946        -0.967369        -1.213376
 H        -0.014267         0.754039        -1.606388
