19
Iteration:   828charge 0 multiplicity 1
 O         0.227246        -0.078527         1.093491
 C        -0.887774         0.474429         0.376896
 C        -2.206973         0.719314         1.001967
 C        -1.476200         1.896101         0.604798
 C        -2.128064         2.895862        -0.279719
 C        -2.267114         2.782820        -1.629545
 C        -2.169309         1.617776        -2.447120
 O        -2.067605         0.281128        -1.955172
 C        -0.862236         0.108126        -1.150978
 H         0.970244        -0.098407         0.533491
 H        -3.138714         0.572688         0.362523
 H        -2.390986         0.500847         2.050735
 H        -1.010542         2.375794         1.456631
 H        -2.649250         3.649323         0.228349
 H        -2.730604         3.684139        -2.070259
 H        -3.125483         1.723531        -3.102921
 H        -1.451639         1.724610        -3.264424
 H        -0.803649        -1.038540        -1.241430
 H        -0.059185         0.644590        -1.651053
