19
Iteration:  2504charge 0 multiplicity 1
 O         0.084287        -0.000615         0.953058
 C        -0.986460         0.494944         0.313362
 C        -2.346845         0.696643         1.045868
 C        -1.518307         1.854841         0.737576
 C        -1.880310         2.792476        -0.300320
 C        -2.214670         2.715719        -1.603394
 C        -2.324185         1.438276        -2.443201
 O        -2.029580         0.272928        -1.895725
 C        -0.678655         0.335431        -1.171205
 H         0.918930         0.532984         0.707763
 H        -3.208215         0.551279         0.323131
 H        -2.702877         0.209881         1.955371
 H        -0.877842         2.291907         1.610318
 H        -1.733230         3.824658         0.050365
 H        -2.313754         3.695854        -2.124215
 H        -3.392341         1.341602        -2.867626
 H        -1.726052         1.636903        -3.433381
 H        -0.168827        -0.649859        -1.349952
 H        -0.094759         1.176035        -1.504661
