19
Iteration:  3900charge 0 multiplicity 1
 O         0.134357        -0.035270         0.907698
 C        -1.052469         0.533964         0.295535
 C        -2.157539         0.768602         1.246101
 C        -1.390198         1.951535         0.549089
 C        -2.289019         2.792978        -0.198543
 C        -2.493056         2.716638        -1.531816
 C        -1.790674         1.754895        -2.431673
 O        -1.927642         0.322108        -2.104636
 C        -1.041354        -0.132039        -1.125894
 H         0.838462         0.225881         0.320151
 H        -3.229076         0.697594         1.005735
 H        -1.836433         0.463725         2.252432
 H        -0.615626         2.431045         1.105060
 H        -2.581077         3.768128         0.384015
 H        -2.995657         3.588821        -2.040873
 H        -2.108120         1.712073        -3.476571
 H        -0.721462         2.015118        -2.471425
 H        -1.350911        -1.201498        -0.901973
 H         0.044370        -0.014239        -1.443830
