19
Iteration:  1964
 O         0.289128         0.136982         0.959826
 C        -1.002458         0.501870         0.199971
 C        -2.164463         0.584933         1.131393
 C        -1.522412         1.874723         0.632131
 C        -2.215513         2.853798        -0.221562
 C        -2.222802         2.815962        -1.550950
 C        -1.932758         1.714917        -2.485836
 O        -2.070394         0.336686        -2.017525
 C        -1.136523        -0.184565        -1.071227
 H         0.809360         0.937305         1.050152
 H        -3.160035         0.607762         0.718655
 H        -2.085866         0.195836         2.147300
 H        -0.856112         2.277324         1.371407
 H        -2.221275         3.825146         0.215793
 H        -2.602533         3.613510        -2.078882
 H        -2.546439         1.623240        -3.432455
 H        -0.876130         1.774185        -2.972228
 H        -1.306804        -1.300494        -0.871316
 H        -0.107606        -0.152441        -1.613557
