19
Iteration:  4848charge 0 multiplicity 1
 O         0.257666         0.116822         1.152345
 C        -0.867135         0.444207         0.340328
 C        -2.261729         0.403217         0.908910
 C        -1.684568         1.734142         0.656485
 C        -1.871817         2.761279        -0.375317
 C        -2.099960         2.897889        -1.688983
 C        -2.277731         1.661151        -2.468213
 O        -2.161848         0.393218        -1.790910
 C        -0.908448         0.171175        -1.195692
 H         0.763093         0.934553         0.968985
 H        -3.073460         0.062959         0.295567
 H        -2.346482         0.005332         1.918767
 H        -1.394829         2.151536         1.602664
 H        -1.611378         3.709924         0.110625
 H        -2.233862         3.852709        -2.306278
 H        -3.243044         1.556559        -3.095615
 H        -1.431696         1.720280        -3.193480
 H        -0.895326        -0.931737        -1.335251
 H        -0.222902         0.817418        -1.645617
