19
Iteration:   229charge 0 multiplicity 1
 O         0.096567        -0.014445         0.920585
 C        -1.019688         0.576821         0.265390
 C        -2.201987         0.621861         1.134896
 C        -1.383779         1.915939         0.748599
 C        -2.102003         2.834473        -0.182837
 C        -2.428835         2.680557        -1.465033
 C        -1.994207         1.685796        -2.575819
 O        -1.906721         0.317290        -2.096340
 C        -0.969186         0.062844        -1.116240
 H         0.873092         0.159851         0.280538
 H        -3.197139         0.679939         0.721972
 H        -2.083885         0.261697         2.161430
 H        -0.537888         2.227977         1.450240
 H        -2.729735         3.599808         0.326328
 H        -3.044441         3.518356        -1.940399
 H        -2.870210         1.609918        -3.197414
 H        -1.114261         2.031348        -3.082885
 H        -1.022615        -1.040562        -1.022307
 H         0.073445         0.482925        -1.374403
