19
Iteration:   931charge 0 multiplicity 1
 O         0.124887        -0.014942         0.986109
 C        -0.920513         0.608461         0.275319
 C        -2.212037         0.447093         0.946601
 C        -1.658321         1.797040         0.730342
 C        -1.794933         2.874059        -0.337261
 C        -2.153522         2.747552        -1.663390
 C        -2.409070         1.539718        -2.523173
 O        -2.094538         0.357746        -1.755664
 C        -0.757791         0.293055        -1.165300
 H         0.292016         0.661195         1.707806
 H        -3.183370         0.255984         0.463809
 H        -2.026957         0.028972         1.927362
 H        -1.269424         2.232920         1.660993
 H        -1.493489         3.911973         0.045848
 H        -1.971831         3.671980        -2.155507
 H        -3.524703         1.318430        -2.865193
 H        -1.789602         1.630734        -3.462718
 H        -0.525897        -0.787159        -1.188772
 H         0.065615         0.821721        -1.754273
