19
Iteration:  2197charge 0 multiplicity 1
 O         0.209839         0.007168         0.975093
 C        -0.982316         0.514085         0.309989
 C        -2.320015         0.567167         0.908897
 C        -1.545974         1.909171         0.645930
 C        -1.906446         2.877303        -0.323321
 C        -2.321705         2.821473        -1.604208
 C        -2.137047         1.553361        -2.437706
 O        -2.059846         0.319097        -1.799653
 C        -0.851410         0.061266        -1.114646
 H         0.923926         0.587504         0.778046
 H        -3.260910         0.471824         0.375916
 H        -2.297789         0.309179         1.923000
 H        -1.178031         2.232064         1.610852
 H        -2.056012         3.844773         0.188057
 H        -2.656879         3.826203        -2.064609
 H        -3.009527         1.500337        -3.261019
 H        -1.116269         1.781062        -2.897998
 H        -0.728585        -1.070564        -1.208018
 H        -0.055307         0.564463        -1.643119
