19
Iteration:  4678
 O         0.270728         0.168875         0.941271
 C        -0.983716         0.441438         0.324752
 C        -2.270858         0.498214         1.174577
 C        -1.542951         1.815553         0.670348
 C        -2.144237         2.873570        -0.233208
 C        -2.268429         2.904928        -1.591416
 C        -1.913511         1.678424        -2.547165
 O        -2.090250         0.362050        -1.975039
 C        -1.026413        -0.100354        -1.152637
 H         0.998117         0.544269         0.429647
 H        -3.121753         0.231304         0.636221
 H        -2.298802         0.241095         2.184376
 H        -0.884168         2.203709         1.413812
 H        -2.384188         3.920025         0.268864
 H        -2.747128         3.751457        -2.015699
 H        -2.475604         1.712959        -3.440208
 H        -0.915041         1.719316        -2.978857
 H        -1.140039        -1.193934        -0.871886
 H         0.064596        -0.043506        -1.606268
