19
Iteration:  3300charge 0 multiplicity 1
 O         0.018946        -0.145527         1.056655
 C        -0.905126         0.550262         0.315168
 C        -2.339274         0.634569         0.885838
 C        -1.497844         1.969045         0.763563
 C        -1.832408         2.946532        -0.292336
 C        -2.236194         2.739695        -1.536794
 C        -2.430147         1.521204        -2.420095
 O        -1.961609         0.204021        -1.933458
 C        -0.668232         0.281627        -1.225728
 H         0.788273         0.353614         1.122884
 H        -3.110263         0.395197         0.102984
 H        -2.254327         0.052305         1.822680
 H        -1.130242         2.155862         1.757002
 H        -1.849774         4.037258        -0.072516
 H        -2.550919         3.706928        -2.162210
 H        -3.435625         1.348689        -2.595501
 H        -1.909166         1.745636        -3.387930
 H        -0.190083        -0.648846        -1.496875
 H        -0.177697         1.109781        -1.707508
