19
Iteration:  3511
 O         0.142901         0.030591         0.888856
 C        -1.028107         0.492579         0.202996
 C        -2.162879         0.779543         1.238858
 C        -1.441741         1.986133         0.556923
 C        -2.295716         2.848664        -0.136002
 C        -2.407724         2.754108        -1.523618
 C        -1.726818         1.732924        -2.335780
 O        -1.993187         0.312223        -2.109492
 C        -1.044104        -0.268363        -1.209517
 H         0.905979         0.472232         0.377451
 H        -3.228630         0.701022         1.015112
 H        -1.857746         0.465340         2.256616
 H        -0.548509         2.424421         1.186059
 H        -2.756379         3.720991         0.464641
 H        -3.132735         3.434961        -1.948646
 H        -2.113648         1.994819        -3.274120
 H        -0.691397         1.980606        -2.221241
 H        -1.469638        -1.306671        -0.991110
 H        -0.035704        -0.362889        -1.649370
