19
Iteration:   773charge 0 multiplicity 1
 O         0.301337         0.247446         0.955636
 C        -0.900936         0.473669         0.269304
 C        -2.243591         0.469907         1.177391
 C        -1.583491         1.772745         0.545757
 C        -2.113833         2.916285        -0.253771
 C        -2.134325         2.894061        -1.595529
 C        -1.904138         1.603832        -2.508589
 O        -2.284553         0.333468        -1.874582
 C        -1.041410        -0.122015        -1.165198
 H         0.795780         1.036138         0.804050
 H        -3.221762         0.103420         0.826837
 H        -2.078418         0.431319         2.272604
 H        -1.207378         2.204515         1.444153
 H        -2.085613         3.823463         0.199756
 H        -2.432457         3.791420        -2.100177
 H        -2.612279         1.768657        -3.394089
 H        -0.886897         1.638784        -2.836405
 H        -1.194225        -1.259708        -1.181172
 H        -0.103934        -0.014000        -1.742286
