19
Iteration:  2324
 O         0.209016         0.110998         0.970310
 C        -0.924354         0.588214         0.213871
 C        -2.151729         0.577538         1.102438
 C        -1.487623         1.883350         0.546908
 C        -2.123094         2.937522        -0.267845
 C        -2.462402         2.771524        -1.575078
 C        -1.749738         1.678666        -2.398648
 O        -2.143277         0.372230        -1.942375
 C        -1.078194        -0.241843        -1.129067
 H         1.117421         0.458010         0.768767
 H        -3.161262         0.313120         0.573105
 H        -2.113261         0.406293         2.203689
 H        -0.870748         2.415553         1.319030
 H        -2.672545         3.600269         0.504542
 H        -3.197289         3.384401        -2.145985
 H        -2.004785         1.833020        -3.434438
 H        -0.646891         1.853677        -2.325255
 H        -1.433119        -1.255011        -0.900393
 H        -0.161497        -0.156906        -1.703246
