19
Iteration:  3628
 O         0.206268         0.133915         1.141005
 C        -0.923613         0.522153         0.337223
 C        -2.311364         0.395278         0.885880
 C        -1.502794         1.826040         0.757939
 C        -1.819064         2.869934        -0.281243
 C        -2.180012         2.804870        -1.629914
 C        -2.305263         1.583529        -2.499461
 O        -2.129368         0.312391        -1.961697
 C        -0.915412         0.155494        -1.148869
 H         0.851880         0.842132         0.908317
 H        -3.073692         0.322418         0.123161
 H        -2.488512        -0.097802         1.870850
 H        -1.195978         2.161140         1.651600
 H        -1.871071         3.936736        -0.049044
 H        -2.049591         3.754635        -2.062835
 H        -3.392002         1.453652        -2.832825
 H        -1.589494         1.681764        -3.349030
 H        -0.673679        -0.876450        -1.246509
 H        -0.072698         0.709218        -1.710349
