19
Iteration:  2049charge 0 multiplicity 1
 O         0.111412        -0.085231         1.209686
 C        -0.905133         0.499771         0.259112
 C        -2.194400         0.534921         0.935666
 C        -1.480089         1.893124         0.595203
 C        -1.959991         2.956694        -0.374230
 C        -2.321489         2.799777        -1.651067
 C        -2.236696         1.596301        -2.451604
 O        -2.056551         0.368411        -1.841221
 C        -0.785237         0.139987        -1.172927
 H         0.973908         0.174816         0.723708
 H        -3.038443         0.035594         0.529982
 H        -2.025159         0.209130         1.918471
 H        -1.225910         2.400559         1.514612
 H        -2.402947         3.805040         0.135058
 H        -2.665892         3.634619        -2.250169
 H        -3.350296         1.666405        -2.733735
 H        -1.652700         1.734462        -3.287348
 H        -0.721259        -0.903400        -1.116094
 H         0.016085         0.582341        -1.780489
