19
Iteration:  2175charge 0 multiplicity 1
 O         0.168073         0.044096         1.188498
 C        -0.885788         0.489570         0.338446
 C        -2.294189         0.475003         0.926000
 C        -1.509675         1.848624         0.611361
 C        -1.874943         2.926861        -0.325083
 C        -2.279158         2.759375        -1.593990
 C        -2.225362         1.560428        -2.532583
 O        -2.155320         0.327103        -1.787911
 C        -0.860647         0.195881        -1.237311
 H         1.061988         0.318195         0.804246
 H        -2.913988         0.226237         0.056857
 H        -2.620037         0.194296         1.894489
 H        -1.050517         2.161828         1.563288
 H        -1.569401         3.971780        -0.106272
 H        -2.493697         3.774796        -2.091964
 H        -3.194757         1.638422        -3.200636
 H        -1.327966         1.721404        -3.113987
 H        -0.542767        -0.895170        -1.387443
 H        -0.216261         0.794769        -1.830791
