19
Iteration:  2475charge 0 multiplicity 1
 O         0.131807        -0.047109         1.074830
 C        -0.887006         0.580331         0.350394
 C        -2.279184         0.560959         0.939413
 C        -1.531457         1.912323         0.715145
 C        -1.852969         2.979150        -0.320636
 C        -2.213817         2.791994        -1.590650
 C        -2.374183         1.453581        -2.485248
 O        -2.073784         0.233638        -1.987129
 C        -0.775133         0.201151        -1.164602
 H         0.736060         0.645651         1.451379
 H        -3.040230         0.304723         0.124049
 H        -2.223584         0.123596         2.002306
 H        -1.186310         2.279524         1.727046
 H        -2.089026         3.972371         0.189404
 H        -2.560914         3.734358        -2.045425
 H        -3.451709         1.513059        -2.658600
 H        -1.700029         1.686502        -3.315747
 H        -0.373560        -0.833947        -1.200016
 H         0.112506         0.745880        -1.782208
