19
Iteration:  4977
 O         0.110265         0.007077         1.145363
 C        -0.868583         0.456341         0.272841
 C        -2.167225         0.595450         1.021135
 C        -1.423495         1.861958         0.554586
 C        -2.175947         2.863120        -0.228913
 C        -2.373934         2.878377        -1.569783
 C        -2.033778         1.720065        -2.573312
 O        -2.077117         0.366173        -1.941100
 C        -0.876376        -0.048803        -1.161881
 H         1.048895         0.064310         0.807973
 H        -3.018336         0.211866         0.448318
 H        -2.080417         0.363387         2.091080
 H        -0.987648         2.247773         1.455477
 H        -2.642069         3.657904         0.351444
 H        -2.944850         3.835664        -1.906641
 H        -2.823796         1.706643        -3.260417
 H        -1.093635         1.889838        -3.029724
 H        -0.855248        -1.093992        -1.179799
 H         0.081762         0.147369        -1.596876
