19
Iteration:  2067
 O         0.018876        -0.048819         1.166599
 C        -0.828994         0.544524         0.261707
 C        -2.198695         0.549696         0.902821
 C        -1.453021         1.914322         0.637854
 C        -1.983703         2.937269        -0.281365
 C        -2.248094         2.844683        -1.606234
 C        -2.360575         1.544906        -2.452143
 O        -2.051690         0.247027        -1.866536
 C        -0.761161         0.131659        -1.235032
 H         0.890045         0.448519         1.339542
 H        -3.063109         0.479934         0.271000
 H        -2.346478         0.248629         1.970738
 H        -0.873173         2.288208         1.524555
 H        -1.903899         3.958284         0.203005
 H        -2.676475         3.854247        -2.018517
 H        -3.281524         1.363568        -2.921546
 H        -1.608917         1.551426        -3.412266
 H        -0.306498        -0.923997        -1.414036
 H        -0.112262         0.865621        -1.844823
