19
Iteration:  2921charge 0 multiplicity 1
 O         0.067307        -0.007303         1.146904
 C        -0.887430         0.521119         0.307932
 C        -2.279821         0.616152         0.860985
 C        -1.455783         1.865085         0.727381
 C        -1.824636         2.901810        -0.274015
 C        -2.316184         2.696468        -1.577983
 C        -2.372340         1.514825        -2.493218
 O        -2.004103         0.263391        -1.895517
 C        -0.799473         0.267774        -1.196069
 H         0.948641         0.291707         0.722589
 H        -2.874488         0.535605        -0.046179
 H        -2.716243         0.287203         1.765976
 H        -0.957994         2.159040         1.668651
 H        -1.859725         3.975946         0.111562
 H        -2.562427         3.624509        -2.096989
 H        -3.383309         1.485545        -2.803418
 H        -1.734228         1.723975        -3.425309
 H        -0.415457        -0.802550        -1.327533
 H        -0.042632         0.933590        -1.617227
