19
Iteration:  2897charge 0 multiplicity 1
 O         0.126723        -0.121567         1.006575
 C        -0.971762         0.534512         0.271222
 C        -2.404768         0.683034         0.927721
 C        -1.524372         1.920442         0.689916
 C        -1.864439         2.977983        -0.265695
 C        -2.261787         2.745331        -1.579950
 C        -2.414201         1.500495        -2.375924
 O        -1.874849         0.178776        -1.947005
 C        -0.714811         0.220891        -1.158049
 H         0.786656         0.561599         0.914556
 H        -3.294706         0.619128         0.393252
 H        -2.451328         0.404210         1.949089
 H        -1.252257         2.386752         1.711786
 H        -1.699331         3.982682         0.048119
 H        -2.587798         3.600775        -2.084631
 H        -3.417838         1.509860        -2.597376
 H        -1.950260         1.775440        -3.396685
 H        -0.201586        -0.766684        -1.309726
 H         0.102943         0.920961        -1.469267
