19
Iteration:  1514charge 0 multiplicity 1
 O         0.274022        -0.032031         0.868444
 C        -0.952952         0.448434         0.349400
 C        -2.188856         0.657959         1.214596
 C        -1.482165         1.954844         0.589316
 C        -2.197204         2.844240        -0.328472
 C        -2.372747         2.815345        -1.634912
 C        -1.786235         1.701594        -2.446557
 O        -2.134214         0.434889        -1.929438
 C        -1.111967        -0.128317        -1.074445
 H         0.916438         0.505067         0.385733
 H        -3.030904         0.285157         0.559235
 H        -1.993502         0.361187         2.293075
 H        -0.905603         2.332041         1.393705
 H        -2.786569         3.558490         0.255459
 H        -3.101023         3.322745        -2.255646
 H        -2.032189         1.718275        -3.558466
 H        -0.608366         1.807517        -2.396015
 H        -1.218652        -1.195702        -0.926180
 H        -0.189062         0.252181        -1.580840
