19
Iteration:   552
 O         0.223039         0.171234         1.003737
 C        -0.935278         0.480787         0.323746
 C        -2.252456         0.253421         0.957223
 C        -1.618010         1.779232         0.601818
 C        -1.780970         2.865068        -0.420325
 C        -2.253820         2.969208        -1.684957
 C        -2.298644         1.548175        -2.473650
 O        -2.068248         0.455714        -1.721706
 C        -0.852555         0.120260        -1.163437
 H        -0.002993         0.035839         1.894796
 H        -3.107488        -0.062107         0.389333
 H        -2.241673         0.115773         2.045278
 H        -1.413742         2.167167         1.660831
 H        -1.749914         3.763436         0.246425
 H        -2.454461         3.941101        -2.253894
 H        -3.169298         1.321596        -3.164833
 H        -1.444019         1.637126        -3.100930
 H        -0.693307        -0.955457        -1.097264
 H        -0.106677         0.737452        -1.596886
