19
Iteration:  4155charge 0 multiplicity 1
 O         0.053491        -0.132993         1.090586
 C        -0.885091         0.596151         0.319541
 C        -2.191304         0.727865         1.069496
 C        -1.418082         1.945168         0.653190
 C        -2.046221         2.883505        -0.243496
 C        -2.440420         2.666237        -1.585589
 C        -2.052172         1.639024        -2.533187
 O        -2.033187         0.317697        -2.028590
 C        -0.862899         0.083951        -1.177253
 H         1.015828         0.150093         0.885871
 H        -3.061647         0.357639         0.520953
 H        -2.120939         0.476763         2.134881
 H        -0.985481         2.422195         1.498501
 H        -2.415748         3.694405         0.269235
 H        -2.987541         3.445789        -1.965572
 H        -2.998299         1.560818        -3.143811
 H        -1.249209         1.951938        -3.391073
 H        -0.710549        -1.053503        -0.864481
 H         0.126278         0.450824        -1.745976
