19
Iteration:  1986
 O         0.141853         0.149916         0.901843
 C        -0.967352         0.553614         0.267763
 C        -2.175796         0.559476         1.134117
 C        -1.539706         1.904753         0.726083
 C        -2.076027         2.927698        -0.208751
 C        -2.184059         2.806768        -1.559680
 C        -1.959668         1.586131        -2.474266
 O        -2.159581         0.269978        -1.979069
 C        -0.980082        -0.071138        -1.210426
 H         0.786497         0.898404         1.034527
 H        -3.071950         0.200618         0.623722
 H        -1.974210         0.220535         2.149997
 H        -0.979348         2.221408         1.583009
 H        -2.496815         3.818575         0.191982
 H        -2.473515         3.639351        -2.103885
 H        -2.656260         1.606434        -3.395516
 H        -0.876014         1.566565        -2.968118
 H        -1.193126        -1.149176        -0.950013
 H        -0.009749        -0.026875        -1.808464
