19
Iteration:   239charge 0 multiplicity 1
 O         0.006064         0.018725         0.929214
 C        -1.044724         0.536021         0.201096
 C        -2.143811         0.677754         1.168815
 C        -1.306230         1.883945         0.615052
 C        -2.149666         2.783207        -0.130830
 C        -2.438166         2.774268        -1.489950
 C        -1.959347         1.692512        -2.492809
 O        -1.927264         0.331202        -2.064902
 C        -0.927140         0.003501        -1.155004
 H         0.873793         0.549125         0.780681
 H        -3.125013         0.584927         0.735464
 H        -2.083747         0.151663         2.120467
 H        -0.653535         2.277578         1.493743
 H        -2.617372         3.576150         0.475861
 H        -3.391709         3.329441        -1.793364
 H        -2.708165         1.668924        -3.312948
 H        -1.050553         1.787628        -3.052225
 H        -0.747655        -1.094157        -1.080705
 H         0.056733         0.275364        -1.576642
