19
Iteration:  2920
 O         0.071004        -0.009432         1.142167
 C        -0.898030         0.510092         0.313578
 C        -2.280756         0.623437         0.858526
 C        -1.462766         1.869871         0.734109
 C        -1.816725         2.905736        -0.273864
 C        -2.321269         2.701211        -1.580476
 C        -2.372469         1.509584        -2.485275
 O        -1.998411         0.265260        -1.899261
 C        -0.801530         0.268725        -1.196094
 H         0.939895         0.305044         0.710692
 H        -2.850972         0.535154        -0.032644
 H        -2.710337         0.293705         1.744379
 H        -0.929983         2.148007         1.686682
 H        -1.888456         3.949351         0.096286
 H        -2.560927         3.603697        -2.097421
 H        -3.347063         1.482143        -2.803660
 H        -1.763474         1.706001        -3.436005
 H        -0.383524        -0.781753        -1.319622
 H        -0.039023         0.912715        -1.646510
