19
Iteration:  3928
 O         0.049630        -0.083466         1.082699
 C        -0.905928         0.535629         0.296215
 C        -2.090812         0.788797         1.107932
 C        -1.342106         1.975621         0.602181
 C        -2.227725         2.868693        -0.237915
 C        -2.502069         2.681495        -1.515598
 C        -1.872427         1.769228        -2.487963
 O        -1.977972         0.355362        -2.078909
 C        -1.022519        -0.086520        -1.206524
 H         0.946385         0.028560         0.623047
 H        -2.990928         0.440454         0.622558
 H        -1.924210         0.384475         2.114700
 H        -0.653582         2.341961         1.364428
 H        -2.773788         3.471120         0.314123
 H        -3.398665         3.033708        -1.901502
 H        -2.391414         1.639027        -3.420496
 H        -0.825796         2.018907        -2.726347
 H        -1.383523        -1.063904        -0.942596
 H        -0.003865        -0.114622        -1.588324
