19
Iteration:  3952charge 0 multiplicity 1
 O         0.126935        -0.037147         1.072992
 C        -0.928586         0.486154         0.318776
 C        -2.212332         0.707410         1.031054
 C        -1.311898         1.906650         0.650544
 C        -2.102649         2.853247        -0.262440
 C        -2.551597         2.768683        -1.580748
 C        -1.952537         1.724448        -2.485205
 O        -2.055886         0.320951        -2.003270
 C        -0.930081        -0.049355        -1.182716
 H         0.908613         0.312285         0.736913
 H        -3.134274         0.790396         0.439748
 H        -2.273895         0.343066         2.074549
 H        -0.803658         2.234973         1.512054
 H        -2.524449         3.600743         0.294044
 H        -3.133785         3.595728        -2.035571
 H        -2.314480         1.668186        -3.499491
 H        -0.858520         1.850028        -2.549425
 H        -0.904659        -1.175653        -1.196828
 H        -0.039673         0.387985        -1.539985
