19
Iteration:  1434charge 0 multiplicity 1
 O         0.116305        -0.083089         0.933504
 C        -0.974507         0.528274         0.301278
 C        -2.176109         0.679796         1.121861
 C        -1.442639         1.923558         0.676171
 C        -2.093910         2.844477        -0.323367
 C        -2.431352         2.717672        -1.587389
 C        -1.983490         1.663949        -2.450258
 O        -1.996568         0.412385        -1.911961
 C        -0.954606        -0.001073        -1.165765
 H         0.998338         0.298004         0.745896
 H        -3.182826         0.552368         0.783337
 H        -2.223621         0.477606         2.130858
 H        -0.675148         2.346897         1.382275
 H        -2.431857         3.827418         0.152958
 H        -2.874590         3.497336        -2.175680
 H        -2.635518         1.413114        -3.217260
 H        -0.920777         1.829375        -3.009858
 H        -1.070382        -1.135364        -1.030892
 H        -0.037644         0.262477        -1.753056
