19
Iteration:  4560
 O         0.068919        -0.042788         1.181736
 C        -0.903925         0.530766         0.223549
 C        -2.177600         0.663361         0.967727
 C        -1.365849         1.900725         0.588632
 C        -2.111710         2.941440        -0.210409
 C        -2.461900         2.761284        -1.499706
 C        -2.062680         1.591786        -2.517498
 O        -1.989373         0.346826        -1.991909
 C        -0.894126        -0.012288        -1.201498
 H         0.933630        -0.004372         0.909093
 H        -3.107931         0.601696         0.475911
 H        -2.046179         0.273518         1.926517
 H        -0.820419         2.342729         1.388093
 H        -2.557785         3.903350         0.245348
 H        -3.001470         3.610235        -1.863990
 H        -2.791360         1.544355        -3.345620
 H        -1.216455         1.884097        -3.030917
 H        -0.846334        -1.067362        -1.182665
 H         0.098972         0.438577        -1.542254
