19
Iteration:  4344
 O         0.049603        -0.072620         1.053477
 C        -0.906014         0.516389         0.219820
 C        -2.206002         0.771871         0.960785
 C        -1.361240         1.916099         0.568464
 C        -2.099714         2.951800        -0.234870
 C        -2.545899         2.688874        -1.453371
 C        -1.969220         1.642704        -2.435367
 O        -1.997328         0.326732        -1.960977
 C        -0.839437        -0.010601        -1.130014
 H         0.934064         0.029283         0.677322
 H        -3.100998         0.630526         0.400867
 H        -2.267199         0.591755         2.019985
 H        -0.713574         2.322364         1.401169
 H        -2.676817         3.581831         0.358645
 H        -3.167383         3.468626        -1.946777
 H        -2.534503         1.662859        -3.405702
 H        -0.976442         1.958017        -2.784769
 H        -1.068453        -1.182838        -1.203386
 H         0.049907         0.064520        -1.716571
