19
Iteration:  4236
 O         0.297296         0.267130         0.863535
 C        -0.937582         0.570045         0.272663
 C        -2.121255         0.438433         1.134492
 C        -1.730036         1.828697         0.747247
 C        -2.175143         2.862561        -0.259652
 C        -2.126333         2.807941        -1.660543
 C        -1.788982         1.617567        -2.505080
 O        -2.160506         0.402612        -1.909650
 C        -1.230540        -0.220408        -1.108607
 H         1.089217         0.763731         0.525797
 H        -3.006941         0.047887         0.606170
 H        -2.153056         0.151534         2.174360
 H        -1.171405         2.307074         1.642143
 H        -2.660523         3.872470         0.206350
 H        -2.166308         3.906057        -2.085108
 H        -2.344703         1.789095        -3.460639
 H        -0.634999         1.822078        -2.662719
 H        -1.523194        -1.190531        -0.864176
 H        -0.118169        -0.120292        -1.571518
