19
Iteration:  2879charge 0 multiplicity 1
 O         0.025779        -0.080510         0.989625
 C        -0.948847         0.582277         0.309366
 C        -2.275773         0.598505         0.982849
 C        -1.515165         1.968260         0.728422
 C        -1.902761         2.935256        -0.266466
 C        -2.203458         2.753050        -1.609120
 C        -2.404762         1.464998        -2.397204
 O        -1.904311         0.239977        -2.009818
 C        -0.746398         0.235230        -1.179875
 H         0.669467         0.383775         1.517029
 H        -3.103746         0.216846         0.324275
 H        -2.352138         0.291370         2.018098
 H        -0.906430         2.410412         1.483435
 H        -1.896635         4.036252         0.085284
 H        -2.173411         3.698369        -2.219754
 H        -3.503493         1.038798        -2.399783
 H        -2.023337         1.781463        -3.362568
 H        -0.525355        -0.857542        -1.143763
 H         0.025180         0.909346        -1.576850
