19
Iteration:  4695
 O         0.154941         0.030514         0.986717
 C        -0.935094         0.519929         0.237029
 C        -2.151243         0.562347         1.039232
 C        -1.510773         1.947864         0.663643
 C        -2.103363         2.830065        -0.272112
 C        -2.359489         2.709920        -1.580619
 C        -1.908211         1.685155        -2.460201
 O        -2.071317         0.421429        -1.900582
 C        -1.033692        -0.047972        -1.121810
 H         0.893275         0.457555         0.609180
 H        -3.156034         0.356162         0.543567
 H        -2.021604         0.241570         2.112220
 H        -0.988240         2.293969         1.596339
 H        -2.596466         3.613875         0.222989
 H        -2.821653         3.632794        -2.086339
 H        -2.558969         1.744073        -3.406476
 H        -0.812380         1.875933        -2.852758
 H        -0.942300        -1.161209        -1.303827
 H        -0.128785         0.147302        -1.648841
