19
Iteration:  2363
 O         0.228275         0.093039         0.933018
 C        -0.991409         0.510524         0.272131
 C        -2.242509         0.671224         1.292693
 C        -1.494993         1.838902         0.593357
 C        -2.162497         2.873390        -0.213943
 C        -2.263326         2.785836        -1.564215
 C        -1.905509         1.704551        -2.544408
 O        -2.042154         0.296702        -2.015372
 C        -1.054623        -0.098590        -1.154152
 H         0.888245         0.793082         0.719788
 H        -3.155124         0.335047         0.807798
 H        -2.178962         0.487064         2.351622
 H        -0.737434         2.227640         1.285551
 H        -2.830749         3.552240         0.210658
 H        -2.831286         3.618909        -1.933499
 H        -2.613093         1.657329        -3.391191
 H        -0.928535         1.772794        -3.011524
 H        -1.026407        -1.206459        -1.101731
 H        -0.000284         0.015974        -1.577740
