19
Iteration:  3741charge 0 multiplicity 1
 O         0.012748        -0.093138         1.118543
 C        -0.959963         0.527955         0.248313
 C        -2.247505         0.607749         0.986342
 C        -1.441217         1.928643         0.635164
 C        -1.936141         2.941882        -0.338288
 C        -2.394951         2.800823        -1.548746
 C        -2.291773         1.574307        -2.454225
 O        -1.864836         0.279032        -1.933425
 C        -0.728698         0.110113        -1.181440
 H         0.894900         0.391926         0.855619
 H        -3.163880         0.498676         0.404527
 H        -2.240536         0.224587         2.019101
 H        -0.855284         2.302597         1.601046
 H        -2.223698         3.896165         0.158759
 H        -3.016425         3.706064        -1.970923
 H        -3.285235         1.338200        -2.879598
 H        -1.719393         1.927767        -3.272649
 H        -0.655596        -0.974584        -1.154105
 H         0.092249         0.727590        -1.663673
