19
Iteration:  4137
 O         0.022558        -0.122857         1.135281
 C        -0.961949         0.514122         0.280238
 C        -2.225195         0.747309         1.019207
 C        -1.322686         1.972616         0.699415
 C        -2.036691         2.884960        -0.236784
 C        -2.439882         2.728678        -1.578877
 C        -2.216357         1.553264        -2.545506
 O        -1.913895         0.258462        -1.994254
 C        -0.784696         0.113789        -1.221076
 H         0.862728         0.032137         0.591013
 H        -3.203347         0.915125         0.546795
 H        -2.326500         0.271643         2.024172
 H        -0.671333         2.451597         1.494642
 H        -2.381101         3.841423         0.240268
 H        -3.087316         3.658751        -1.788910
 H        -2.981807         1.646425        -3.304992
 H        -1.320795         1.855876        -2.963282
 H        -0.564272        -0.886515        -1.337879
 H        -0.028593         0.773541        -1.531977
