19
Iteration:   280
 O         0.289682        -0.083562         0.978550
 C        -0.852849         0.479423         0.334554
 C        -2.160761         0.552924         0.961246
 C        -1.410310         1.923358         0.546139
 C        -2.204677         2.903390        -0.257097
 C        -2.580751         2.818370        -1.588270
 C        -1.845819         1.768817        -2.408551
 O        -2.101154         0.413153        -1.949513
 C        -1.011373        -0.098209        -1.138648
 H         0.468784         0.627473         1.619340
 H        -3.009242         0.191898         0.378801
 H        -2.266040         0.298214         2.017411
 H        -0.945878         2.452480         1.395948
 H        -2.533163         3.778543         0.294131
 H        -3.447331         3.343957        -1.975985
 H        -2.152008         1.787737        -3.499090
 H        -0.803911         2.140028        -2.188935
 H        -1.319025        -1.165518        -1.083951
 H        -0.019882         0.011984        -1.600514
