19
Iteration:  4124
 O        -0.039624        -0.067691         1.098430
 C        -1.005462         0.465858         0.262566
 C        -2.239754         0.741637         0.996913
 C        -1.325249         1.932634         0.634766
 C        -1.953703         2.881872        -0.284056
 C        -2.482083         2.737519        -1.488034
 C        -2.180903         1.585311        -2.420954
 O        -1.926903         0.248743        -2.001563
 C        -0.749351         0.174708        -1.188719
 H         0.848320         0.026898         0.698585
 H        -3.112331         0.667226         0.319875
 H        -2.298434         0.287047         2.007580
 H        -0.680475         2.369102         1.389337
 H        -2.155861         3.787120         0.181975
 H        -2.860048         3.473498        -2.102702
 H        -3.047819         1.223910        -2.967729
 H        -1.500906         1.854066        -3.120117
 H        -0.259834        -0.769759        -1.271598
 H        -0.048559         0.862286        -1.606740
