19
Iteration:  2281
 O         0.214837         0.034006         0.896254
 C        -0.929107         0.534390         0.282211
 C        -2.232988         0.701447         1.193665
 C        -1.460558         1.859533         0.595535
 C        -2.237862         2.818111        -0.301664
 C        -2.386721         2.817200        -1.624113
 C        -1.797720         1.662433        -2.429771
 O        -2.092085         0.396216        -1.934716
 C        -0.981789        -0.146276        -1.081949
 H         0.914496         0.103619         0.160968
 H        -3.256653         0.444528         0.737728
 H        -2.200616         0.504078         2.283223
 H        -0.829025         2.338838         1.386886
 H        -2.625065         3.790647         0.175387
 H        -3.135488         3.530440        -2.025406
 H        -2.296183         1.651234        -3.383049
 H        -0.721171         1.724707        -2.560934
 H        -1.267457        -1.147139        -0.848697
 H        -0.040628         0.134804        -1.696486
