19
Iteration:    26charge 0 multiplicity 1
 O         0.247843        -0.086184         1.087895
 C        -0.861534         0.451973         0.323248
 C        -2.290674         0.541487         0.776911
 C        -1.419741         1.861579         0.543146
 C        -2.076956         2.983903        -0.283522
 C        -2.506677         2.921181        -1.512778
 C        -2.195122         1.691524        -2.422104
 O        -1.933282         0.379546        -1.829081
 C        -0.765346         0.028587        -1.140081
 H         0.418377        -1.025251         0.740305
 H        -3.178892         0.555262         0.111186
 H        -2.624706         0.411824         1.800792
 H        -1.255597         2.320672         1.550931
 H        -2.430794         3.749827         0.474495
 H        -3.301988         3.697657        -1.902145
 H        -3.192122         1.455049        -2.923650
 H        -1.478586         1.891894        -3.311393
 H        -0.547405        -1.075296        -1.259354
 H         0.153432         0.485374        -1.610519
