19
Iteration:  4182
 O         0.206191         0.036781         1.005529
 C        -0.960280         0.486636         0.298368
 C        -2.230468         0.581395         1.105645
 C        -1.461754         1.851794         0.675105
 C        -2.174626         2.915807        -0.283540
 C        -2.346202         2.842782        -1.675138
 C        -1.959675         1.649850        -2.544200
 O        -2.104811         0.338267        -1.909761
 C        -0.910310        -0.079134        -1.130329
 H         0.957123         0.664346         0.749178
 H        -3.208463         0.437681         0.641362
 H        -2.173106         0.189490         2.116178
 H        -0.798815         2.276711         1.488549
 H        -2.248081         3.923754         0.336690
 H        -2.866564         3.790481        -2.118276
 H        -2.582088         1.688899        -3.476832
 H        -1.000299         1.876091        -2.899376
 H        -1.012824        -1.061567        -0.866807
 H         0.012029         0.138381        -1.631487
