19
Iteration:  2052
 O         0.084220        -0.081936         1.213735
 C        -0.896316         0.511790         0.254578
 C        -2.172498         0.536457         0.931242
 C        -1.459800         1.868638         0.603519
 C        -1.955181         2.972415        -0.358624
 C        -2.302318         2.827927        -1.659960
 C        -2.271677         1.579612        -2.435597
 O        -2.052675         0.334135        -1.840030
 C        -0.782774         0.161318        -1.209444
 H         0.946171         0.221995         0.831490
 H        -3.082955         0.049831         0.454021
 H        -2.032624         0.249215         1.990585
 H        -1.245630         2.363670         1.521491
 H        -2.455014         3.791553         0.114347
 H        -2.682360         3.555454        -2.298081
 H        -3.396621         1.647597        -2.751636
 H        -1.580997         1.820318        -3.261644
 H        -0.741612        -0.918016        -1.140263
 H         0.043066         0.601867        -1.717445
