19
Iteration:  3985
 O         0.155552         0.051779         0.987576
 C        -0.928302         0.531830         0.253515
 C        -2.251828         0.498071         0.987391
 C        -1.516527         1.827576         0.662725
 C        -2.090520         2.966119        -0.258207
 C        -2.213381         2.833446        -1.564151
 C        -2.068196         1.589384        -2.500332
 O        -2.067493         0.333640        -1.877994
 C        -0.934627         0.008238        -1.127632
 H         0.982689         0.642485         0.850973
 H        -3.252739         0.294187         0.544743
 H        -2.158646         0.274784         2.067212
 H        -1.247892         2.225288         1.615970
 H        -2.369063         3.816686         0.263106
 H        -2.223462         3.730207        -2.304954
 H        -2.990904         1.597770        -3.067137
 H        -1.284755         1.863895        -3.149003
 H        -0.686061        -1.095548        -1.131748
 H         0.045319         0.343926        -1.657405
