19
Iteration:   533
 O         0.275418         0.142175         0.997717
 C        -0.909960         0.426883         0.302067
 C        -2.367371         0.473066         0.836853
 C        -1.578702         1.795316         0.619204
 C        -1.913277         2.877806        -0.315448
 C        -2.169802         2.752276        -1.608515
 C        -2.268930         1.623834        -2.486132
 O        -2.134741         0.378189        -1.675590
 C        -0.775993         0.167978        -1.191219
 H         0.064467         0.160334         1.954905
 H        -3.125763         0.235325         0.103886
 H        -2.527697         0.184752         1.881613
 H        -1.016724         2.040026         1.540736
 H        -1.817259         3.869542         0.049146
 H        -2.444872         3.653891        -2.218916
 H        -3.352870         1.464432        -2.848942
 H        -1.541882         1.513169        -3.374093
 H        -0.474904        -0.897385        -1.384618
 H        -0.013753         0.966100        -1.512675
