19
Iteration:   535
 O         0.265081         0.153382         0.997404
 C        -0.919614         0.424484         0.305198
 C        -2.368016         0.456356         0.843527
 C        -1.571635         1.777881         0.614316
 C        -1.889593         2.891415        -0.326173
 C        -2.193090         2.771147        -1.609345
 C        -2.259735         1.617101        -2.503006
 O        -2.137328         0.383008        -1.661176
 C        -0.774391         0.170647        -1.176532
 H         0.086639         0.150924         1.908387
 H        -3.132597         0.162880         0.114409
 H        -2.490707         0.113241         1.877671
 H        -1.049883         2.048931         1.499442
 H        -1.820155         3.888132         0.038187
 H        -2.427284         3.661532        -2.165486
 H        -3.294669         1.462924        -2.808402
 H        -1.548568         1.507705        -3.413549
 H        -0.496908        -0.887526        -1.426455
 H         0.033139         0.923911        -1.551831
