19
Iteration:  1395charge 0 multiplicity 1
 O         0.201892         0.012375         1.133215
 C        -0.857670         0.494279         0.298003
 C        -2.206532         0.501844         1.018293
 C        -1.527792         1.798808         0.649298
 C        -2.049022         2.867718        -0.349923
 C        -2.156651         2.832422        -1.669670
 C        -2.144984         1.612134        -2.486710
 O        -2.184168         0.374472        -1.849381
 C        -0.938427         0.118388        -1.196385
 H         0.952706         0.509945         0.822824
 H        -3.020651         0.137523         0.378273
 H        -2.243946         0.369678         2.148405
 H        -1.127961         2.281913         1.528249
 H        -2.205089         3.805770         0.143558
 H        -2.410187         3.691654        -2.282955
 H        -3.129878         1.791409        -3.066666
 H        -1.374524         1.739258        -3.189780
 H        -0.861642        -0.946243        -1.237035
 H        -0.105271         0.636526        -1.710230
