19
Iteration:  3690
 O        -0.003235        -0.123782         1.154019
 C        -0.843645         0.591046         0.296216
 C        -2.254033         0.543719         0.815725
 C        -1.503994         1.952532         0.789882
 C        -1.866913         2.971003        -0.251470
 C        -2.186138         2.754861        -1.640070
 C        -2.449676         1.451259        -2.452787
 O        -2.009565         0.187806        -1.918391
 C        -0.669919         0.344031        -1.237735
 H         0.926291         0.243044         1.212147
 H        -3.085238         0.440002         0.128133
 H        -2.485731         0.082602         1.788547
 H        -1.193577         2.340321         1.782565
 H        -1.886861         3.967586         0.018447
 H        -2.492653         3.671145        -2.094539
 H        -3.534073         1.486025        -2.603827
 H        -2.178480         1.815821        -3.522405
 H        -0.236846        -0.683179        -1.496643
 H        -0.146897         1.216179        -1.590083
