19
Iteration:  4979charge 0 multiplicity 1
 O         0.120658         0.012111         1.126432
 C        -0.890405         0.473760         0.286871
 C        -2.160755         0.574380         1.019414
 C        -1.428546         1.864976         0.563271
 C        -2.171332         2.871781        -0.224172
 C        -2.368809         2.862666        -1.570674
 C        -2.034396         1.709493        -2.573442
 O        -2.073800         0.375730        -1.937718
 C        -0.882343        -0.045437        -1.157108
 H         0.992358         0.064254         0.815530
 H        -2.964830         0.214191         0.439935
 H        -2.098365         0.400334         2.027233
 H        -0.983901         2.187396         1.437430
 H        -2.668068         3.678222         0.379966
 H        -2.877837         3.848428        -1.928668
 H        -2.817310         1.717413        -3.373595
 H        -1.109159         1.880082        -2.997907
 H        -0.897094        -1.152457        -1.169186
 H         0.096757         0.138692        -1.554453
