19
Iteration:  2124
 O         0.151424        -0.067862         1.012898
 C        -0.974863         0.465924         0.307359
 C        -2.326219         0.606602         0.965903
 C        -1.557142         1.904591         0.757693
 C        -1.885950         3.012438        -0.326190
 C        -2.179753         2.807525        -1.629946
 C        -2.446217         1.498825        -2.384418
 O        -1.916226         0.222390        -1.977128
 C        -0.788854         0.187079        -1.146438
 H         0.725811         0.667252         1.145529
 H        -3.287322         0.464543         0.491570
 H        -2.311641         0.282289         1.955084
 H        -1.184788         2.279375         1.704487
 H        -1.785535         4.045344        -0.057784
 H        -2.023464         3.664060        -2.330593
 H        -3.449349         1.433086        -2.548401
 H        -1.871330         1.745493        -3.379426
 H        -0.411414        -0.845004        -1.200322
 H        -0.067708         0.901571        -1.656978
