19
Iteration:  1977
 O         0.201926         0.142485         0.930891
 C        -0.980663         0.607643         0.235076
 C        -2.191625         0.531247         1.132113
 C        -1.502988         1.923743         0.753592
 C        -2.120458         2.875086        -0.246703
 C        -2.227057         2.839574        -1.580247
 C        -1.939829         1.610375        -2.454619
 O        -2.126716         0.278479        -1.997632
 C        -1.049810        -0.177424        -1.194844
 H         0.738181         0.964640         1.084507
 H        -3.245925         0.356381         0.710958
 H        -1.921504        -0.013007         2.053046
 H        -0.874784         2.544142         1.363162
 H        -2.470744         3.792233         0.169784
 H        -2.215882         3.761053        -2.116360
 H        -2.679074         1.770045        -3.172844
 H        -0.909854         1.816338        -2.832180
 H        -1.274572        -1.329577        -1.031183
 H        -0.019557        -0.003481        -1.674972
