19
Iteration:   237
 O         0.018000         0.012726         0.924393
 C        -1.041536         0.555120         0.210559
 C        -2.147283         0.664533         1.162559
 C        -1.318953         1.887309         0.640262
 C        -2.135520         2.790246        -0.134833
 C        -2.444892         2.762177        -1.485418
 C        -1.961639         1.691974        -2.510810
 O        -1.919264         0.326795        -2.070385
 C        -0.940532         0.020300        -1.141721
 H         0.897454         0.487447         0.666082
 H        -3.140854         0.607255         0.748494
 H        -2.119959         0.159160         2.112136
 H        -0.631605         2.202023         1.477038
 H        -2.635707         3.549595         0.412384
 H        -3.300249         3.334230        -1.822842
 H        -2.795481         1.636393        -3.293776
 H        -1.019197         1.812186        -3.103167
 H        -0.794036        -1.076335        -1.062141
 H         0.029431         0.316140        -1.469016
