19
Iteration:   101
 O         0.257978         0.024417         0.847516
 C        -1.010630         0.485821         0.283615
 C        -2.335031         0.522332         1.068846
 C        -1.645686         1.855750         0.837266
 C        -2.058825         2.854177        -0.221004
 C        -2.196040         2.736031        -1.581141
 C        -2.279633         1.598473        -2.470134
 O        -1.895606         0.373003        -1.990539
 C        -0.785175         0.219618        -1.213718
 H         0.147033        -0.557099         1.568534
 H        -3.308673         0.377513         0.554783
 H        -2.331235         0.269787         2.143128
 H        -1.075486         2.278859         1.712135
 H        -1.648237         3.882412         0.051195
 H        -2.063584         3.768607        -2.015220
 H        -3.362229         1.514236        -2.733114
 H        -1.872975         1.850196        -3.419045
 H        -0.465618        -0.822959        -1.289415
 H         0.107077         0.732646        -1.515585
