19
Iteration:  2117
 O         0.153337        -0.055379         0.972721
 C        -1.018709         0.488525         0.352772
 C        -2.341059         0.637743         0.936529
 C        -1.542035         1.921638         0.749843
 C        -1.811259         3.004960        -0.311571
 C        -2.238633         2.778660        -1.604430
 C        -2.362314         1.565389        -2.412627
 O        -1.944021         0.135359        -1.992084
 C        -0.778321         0.228108        -1.112880
 H         0.743477         0.650848         1.130958
 H        -3.249069         0.350531         0.357018
 H        -2.381546         0.138165         1.974200
 H        -1.186403         2.156641         1.751408
 H        -1.670279         4.033151         0.038784
 H        -2.278571         3.611729        -2.233344
 H        -3.544368         1.326644        -2.522541
 H        -2.059564         1.674770        -3.470773
 H        -0.402119        -0.766954        -1.146674
 H        -0.021890         0.953274        -1.520305
