19
Iteration:  3897charge 0 multiplicity 1
 O         0.136403        -0.018991         0.896294
 C        -1.051139         0.504273         0.295667
 C        -2.150873         0.789235         1.264775
 C        -1.401642         1.916823         0.547569
 C        -2.289225         2.821465        -0.180818
 C        -2.478007         2.715747        -1.562686
 C        -1.789459         1.743738        -2.412961
 O        -1.924483         0.314048        -2.101774
 C        -1.057441        -0.097563        -1.122681
 H         0.831318         0.261294         0.306291
 H        -3.183894         0.584343         0.949084
 H        -1.862540         0.474156         2.286191
 H        -0.663692         2.408030         1.138373
 H        -2.580231         3.681390         0.295408
 H        -3.004547         3.518185        -2.040034
 H        -2.155544         1.847768        -3.452647
 H        -0.612936         1.960459        -2.460577
 H        -1.336585        -1.207770        -0.987796
 H        -0.028064        -0.056802        -1.476602
