19
Iteration:  3086
 O         0.192538        -0.099480         0.938994
 C        -0.932498         0.543075         0.273555
 C        -2.090101         0.689553         1.171269
 C        -1.414952         1.959866         0.628602
 C        -2.276689         2.783701        -0.267788
 C        -2.506485         2.720888        -1.618159
 C        -1.720331         1.757547        -2.505399
 O        -2.132479         0.405266        -1.957735
 C        -1.076569        -0.083967        -1.105586
 H         0.874996         0.295232         0.447624
 H        -3.168416         0.651088         0.839115
 H        -1.738104         0.391985         2.227850
 H        -0.988961         2.580705         1.365194
 H        -2.782182         3.674495         0.343604
 H        -3.010509         3.572839        -2.172589
 H        -1.817212         1.719819        -3.624371
 H        -0.618217         1.929630        -2.281467
 H        -1.287543        -1.201850        -0.916197
 H        -0.035163        -0.038465        -1.627987
