19
Iteration:    57
 O         0.039157        -0.000034         1.129740
 C        -0.891231         0.563574         0.226180
 C        -2.207599         0.520665         0.928988
 C        -1.417671         1.875486         0.736284
 C        -1.897145         2.895968        -0.223971
 C        -2.480615         2.661430        -1.450699
 C        -2.230904         1.629014        -2.506440
 O        -1.994941         0.345269        -1.975445
 C        -0.745886         0.202509        -1.303963
 H         0.083105        -0.927383         0.921924
 H        -3.176477         0.603101         0.424399
 H        -2.118996         0.068652         1.907207
 H        -0.981775         2.375702         1.618405
 H        -2.008175         3.936416         0.192877
 H        -2.941200         3.614205        -1.853878
 H        -3.111428         1.550853        -3.184813
 H        -1.404774         1.992099        -3.088536
 H        -0.435002        -0.837153        -1.317506
 H         0.028275         0.835166        -1.738839
