19
Iteration:  1955charge 0 multiplicity 1
 O         0.257293         0.136238         0.927657
 C        -0.958092         0.450500         0.320247
 C        -2.185584         0.631665         1.147355
 C        -1.502301         1.823153         0.584798
 C        -2.176418         2.875578        -0.199997
 C        -2.272371         2.827211        -1.557966
 C        -1.886827         1.666207        -2.541382
 O        -2.084587         0.367094        -2.009218
 C        -1.088472        -0.159704        -1.102242
 H         0.787869         0.942467         0.871227
 H        -3.099387         0.253675         0.610411
 H        -2.093185         0.510393         2.238442
 H        -0.882763         2.224223         1.371112
 H        -2.530659         3.781235         0.239444
 H        -2.804163         3.629679        -2.005909
 H        -2.564125         1.759799        -3.327721
 H        -0.873793         1.838782        -2.835280
 H        -1.630937        -1.155852        -0.937074
 H        -0.043379        -0.293508        -1.512304
