19
Iteration:  2441
 O         0.127753         0.078008         1.163861
 C        -0.909241         0.453604         0.280828
 C        -2.251960         0.567378         0.833437
 C        -1.445395         1.776219         0.595509
 C        -1.963063         2.920408        -0.280307
 C        -2.317549         2.808556        -1.580633
 C        -2.294784         1.551418        -2.449166
 O        -2.073757         0.375340        -1.831420
 C        -0.737754         0.067677        -1.145007
 H         0.848088         0.765602         0.926244
 H        -3.132603         0.304966         0.120412
 H        -2.306702         0.159370         1.878070
 H        -0.904691         2.177064         1.541471
 H        -2.039420         3.971140         0.100881
 H        -2.389184         3.731523        -2.203604
 H        -3.221289         1.534778        -3.069216
 H        -1.622203         1.672572        -3.319316
 H        -0.900992        -1.018542        -1.250137
 H         0.027581         0.620614        -1.863450
