19
Iteration:  4086charge 0 multiplicity 1
 O         0.073495        -0.073599         1.115624
 C        -0.855199         0.540499         0.325759
 C        -2.231709         0.592581         0.845740
 C        -1.499341         1.901574         0.806678
 C        -1.938604         2.909792        -0.349064
 C        -2.302518         2.777825        -1.608185
 C        -2.318469         1.564824        -2.460879
 O        -2.000225         0.256396        -1.933801
 C        -0.798163         0.185243        -1.170068
 H         0.804973         0.468396         1.175432
 H        -2.921241         0.431316         0.037526
 H        -2.477566         0.036709         1.737688
 H        -1.069456         2.297816         1.765388
 H        -1.913581         4.010960         0.071070
 H        -2.362831         3.782224        -2.208217
 H        -3.401865         1.697284        -2.630422
 H        -1.866054         1.735860        -3.461512
 H        -0.540858        -0.988389        -1.238874
 H         0.090173         0.843983        -1.608408
