19
Iteration:  3498
 O         0.173367         0.040961         0.826097
 C        -1.052719         0.445430         0.247669
 C        -2.105258         0.752539         1.225078
 C        -1.414100         1.936992         0.679367
 C        -2.270851         2.909159        -0.222292
 C        -2.519780         2.747706        -1.507573
 C        -1.667863         1.730667        -2.403783
 O        -1.977258         0.388571        -2.072196
 C        -1.150877        -0.255671        -1.126029
 H         0.944353         0.365187         0.316274
 H        -3.080753         0.561472         0.739254
 H        -2.060375         0.419942         2.250357
 H        -0.744585         2.456275         1.290995
 H        -2.815048         3.767798         0.302672
 H        -3.230602         3.248459        -2.079027
 H        -1.784540         1.767278        -3.408933
 H        -0.576523         1.810929        -2.349228
 H        -1.343330        -1.324866        -1.120366
 H        -0.087367        -0.223890        -1.497078
