19
Iteration:  2201
 O         0.191895        -0.005320         0.952064
 C        -0.995889         0.530526         0.310073
 C        -2.312447         0.542328         0.955921
 C        -1.511860         1.910438         0.644940
 C        -1.959920         2.907832        -0.307981
 C        -2.287465         2.846991        -1.610059
 C        -2.135320         1.555106        -2.460512
 O        -2.019501         0.299806        -1.803662
 C        -0.888215         0.055648        -1.116047
 H         0.901696         0.714693         0.781358
 H        -3.167856         0.493749         0.314114
 H        -2.399639         0.209592         2.012065
 H        -1.055083         2.324851         1.542643
 H        -2.159968         3.868354         0.110467
 H        -2.739769         3.772543        -1.943005
 H        -2.870171         1.547865        -3.180417
 H        -1.252359         1.727646        -2.992971
 H        -0.741101        -1.036076        -1.093455
 H         0.005524         0.391308        -1.694668
