19
Iteration:  2761
 O         0.154978         0.127531         0.981633
 C        -0.977475         0.445657         0.336069
 C        -2.196140         0.594840         1.203123
 C        -1.524302         1.842543         0.674400
 C        -2.023131         2.831915        -0.302877
 C        -2.296375         2.741309        -1.618052
 C        -1.977274         1.713672        -2.520568
 O        -2.079402         0.354200        -1.996779
 C        -0.995739        -0.046313        -1.154528
 H         0.922143         0.662557         0.576009
 H        -3.206275         0.312680         0.931159
 H        -1.931088         0.496237         2.273995
 H        -1.042233         2.303372         1.477373
 H        -2.484758         3.685670         0.235590
 H        -2.749357         3.609690        -2.202821
 H        -2.747882         1.747726        -3.327617
 H        -0.950524         1.769400        -3.057192
 H        -0.991644        -1.137830        -1.211951
 H         0.040019         0.276903        -1.640250
