19
Iteration:  2465
 O         0.096688        -0.017699         1.137896
 C        -0.844883         0.620440         0.316445
 C        -2.198374         0.527446         0.923457
 C        -1.574094         1.871534         0.736721
 C        -1.852735         2.956432        -0.315389
 C        -2.272073         2.833357        -1.622074
 C        -2.343982         1.611952        -2.456070
 O        -2.047231         0.187711        -1.921125
 C        -0.774001         0.113744        -1.258016
 H         0.668102         0.617717         1.567069
 H        -2.887880         0.075488         0.151884
 H        -2.413580         0.171837         1.993772
 H        -1.080640         2.321481         1.604652
 H        -1.859796         4.053319         0.013853
 H        -2.756543         3.650377        -2.178016
 H        -3.372025         1.530470        -2.819328
 H        -1.848830         1.686577        -3.386873
 H        -0.709204        -0.961304        -1.151733
 H        -0.019208         0.627577        -1.936925
