19
Iteration:  2277charge 0 multiplicity 1
 O         0.217362         0.054458         0.896709
 C        -0.989493         0.495192         0.306060
 C        -2.224871         0.681632         1.195337
 C        -1.447184         1.864801         0.578179
 C        -2.207924         2.826532        -0.294316
 C        -2.367342         2.790018        -1.630445
 C        -1.815835         1.676833        -2.448612
 O        -2.071003         0.373057        -1.921044
 C        -1.021980        -0.074819        -1.091599
 H         0.926504         0.123155         0.276041
 H        -3.214921         0.368568         0.774310
 H        -2.085064         0.553328         2.299127
 H        -0.833045         2.300599         1.386723
 H        -2.542862         3.714220         0.222674
 H        -3.164030         3.352491        -2.081031
 H        -2.315230         1.776001        -3.436061
 H        -0.712248         1.849274        -2.653326
 H        -1.245491        -1.165658        -0.986376
 H        -0.075525         0.087687        -1.566610
