19
Iteration:  4749
 O         0.054432        -0.084598         1.092104
 C        -0.960218         0.504667         0.279806
 C        -2.249883         0.725124         1.021386
 C        -1.353063         1.893895         0.555004
 C        -2.038128         2.904046        -0.199440
 C        -2.516575         2.720393        -1.471904
 C        -2.153202         1.642862        -2.519143
 O        -1.893101         0.343193        -2.018181
 C        -0.805953         0.040771        -1.163497
 H         0.918110         0.117923         0.766271
 H        -3.303696         0.617589         0.569733
 H        -2.213022         0.487253         2.142649
 H        -0.796354         2.177330         1.501983
 H        -2.056079         3.858579         0.245072
 H        -3.280739         3.496719        -1.904059
 H        -2.922867         1.607140        -3.395389
 H        -1.206931         1.980758        -3.148464
 H        -0.886820        -1.071933        -1.011040
 H         0.277334         0.325169        -1.751727
