19
Iteration:  1398
 O         0.199628        -0.011067         1.130013
 C        -0.853558         0.495526         0.293549
 C        -2.195172         0.507265         1.020507
 C        -1.537528         1.817450         0.636406
 C        -2.069808         2.865060        -0.325989
 C        -2.156177         2.855702        -1.681593
 C        -2.119292         1.620816        -2.497466
 O        -2.196680         0.342412        -1.843411
 C        -0.954906         0.126882        -1.183812
 H         0.995795         0.473189         0.878852
 H        -3.010990         0.134760         0.397951
 H        -2.175479         0.519773         2.149515
 H        -1.054833         2.309271         1.466066
 H        -2.282429         3.743366         0.247303
 H        -2.465069         3.793317        -2.302132
 H        -3.084304         1.689858        -3.059552
 H        -1.293048         1.827637        -3.259519
 H        -0.736140        -0.957756        -1.268125
 H        -0.121457         0.613022        -1.744126
