19
Iteration:  1906
 O         0.159417        -0.022061         0.959782
 C        -0.946247         0.589682         0.208849
 C        -2.078438         0.671580         1.181950
 C        -1.481336         1.973926         0.581055
 C        -2.299705         2.851953        -0.245374
 C        -2.373991         2.785070        -1.585643
 C        -1.776012         1.671600        -2.401633
 O        -2.103371         0.356975        -1.922872
 C        -1.044737        -0.156869        -1.189452
 H         0.926777        -0.182215         0.349927
 H        -3.007833         0.380237         0.708770
 H        -1.858004         0.507131         2.207454
 H        -0.931075         2.423795         1.438417
 H        -2.997576         3.582499         0.192197
 H        -2.674483         3.722891        -2.193165
 H        -2.372636         1.655676        -3.417214
 H        -0.632181         1.860773        -2.504152
 H        -1.130456        -1.208386        -1.095323
 H        -0.034616         0.176712        -1.650814
