19
Iteration:  3807
 O         0.266996         0.220380         0.903182
 C        -1.018228         0.443511         0.282365
 C        -2.224207         0.460655         1.133715
 C        -1.621076         1.829345         0.564322
 C        -2.099882         2.835084        -0.293005
 C        -2.243026         2.806889        -1.604986
 C        -1.881574         1.688940        -2.479463
 O        -2.109993         0.398409        -1.806864
 C        -1.075729        -0.106276        -1.132270
 H         0.900605         0.791979         0.446677
 H        -3.105667         0.079313         0.619068
 H        -2.376787         0.368620         2.201424
 H        -0.986727         2.347136         1.399902
 H        -2.228075         3.738568         0.221899
 H        -2.279161         3.799604        -2.134031
 H        -2.262053         1.638763        -3.533522
 H        -0.780848         1.676482        -2.663489
 H        -1.140040        -1.190786        -1.069074
 H        -0.110504         0.272940        -1.453528
