19
Iteration:  3370
 O         0.088993        -0.008312         1.045710
 C        -0.913422         0.568438         0.217997
 C        -2.266626         0.567129         0.985237
 C        -1.504792         1.879684         0.659953
 C        -2.035221         2.887099        -0.232519
 C        -2.209531         2.813664        -1.603444
 C        -2.186519         1.613029        -2.408761
 O        -2.093152         0.294630        -1.879911
 C        -0.775166         0.071525        -1.210439
 H         0.860396         0.496723         0.876283
 H        -3.033345         0.295211         0.272386
 H        -2.098447         0.048510         1.894897
 H        -1.079357         2.294104         1.624149
 H        -2.163298         3.897030         0.130570
 H        -2.378442         3.597526        -2.268884
 H        -3.208346         1.549058        -2.878913
 H        -1.356768         1.800135        -3.128762
 H        -0.684124        -1.031485        -1.152066
 H         0.084197         0.581339        -1.690640
