19
Iteration:   664
 O         0.122542        -0.028991         1.104128
 C        -0.895001         0.466705         0.222760
 C        -2.151403         0.672818         1.039787
 C        -1.259438         1.972101         0.579044
 C        -2.229561         2.806713        -0.221016
 C        -2.510102         2.727193        -1.576604
 C        -1.974380         1.764351        -2.510616
 O        -1.996337         0.432235        -1.963194
 C        -0.957282        -0.118147        -1.124266
 H         1.030771        -0.058303         0.600385
 H        -3.146645         0.792211         0.608157
 H        -2.162867         0.641107         2.133826
 H        -0.687969         2.470663         1.315898
 H        -2.660187         3.590678         0.265673
 H        -3.343686         3.330073        -1.887950
 H        -2.589586         1.563781        -3.475575
 H        -0.988913         2.046441        -3.004990
 H        -1.558732        -1.067666        -0.874561
 H         0.004431        -0.339965        -1.619876
