19
Iteration:  2609charge 0 multiplicity 1
 O         0.225206         0.055340         0.960029
 C        -0.921419         0.500882         0.315370
 C        -2.204359         0.598177         1.131040
 C        -1.555972         1.942048         0.757685
 C        -2.048884         2.918851        -0.264251
 C        -2.266283         2.718339        -1.602958
 C        -2.022561         1.605211        -2.508323
 O        -2.110213         0.317227        -1.993243
 C        -1.018069        -0.022856        -1.180224
 H         0.923029         0.796905         0.990564
 H        -3.046144         0.436286         0.494854
 H        -2.262144         0.169275         2.077635
 H        -1.225136         2.355071         1.649661
 H        -2.251528         3.961643         0.051945
 H        -2.809103         3.555968        -2.053748
 H        -2.672054         1.506451        -3.359176
 H        -0.880168         1.708362        -2.927563
 H        -0.918776        -1.114454        -1.180142
 H        -0.063871         0.450830        -1.769611
