19
Iteration:  3397
 O         0.312483         0.093465         0.973721
 C        -0.930682         0.558582         0.320572
 C        -2.334713         0.491209         1.013616
 C        -1.522665         1.853719         0.758981
 C        -2.033692         2.908441        -0.219746
 C        -2.219466         2.776608        -1.526034
 C        -1.976816         1.593868        -2.578029
 O        -2.130340         0.349948        -1.949085
 C        -1.073391         0.032289        -1.163442
 H         0.919655         0.740796         0.722289
 H        -3.078187         0.346638         0.229725
 H        -2.401623         0.051595         2.061589
 H        -1.048963         2.247529         1.633113
 H        -2.086380         3.953286         0.189245
 H        -2.802181         3.422276        -2.285231
 H        -2.877177         1.498193        -3.196900
 H        -0.997189         1.714882        -3.100773
 H        -1.160594        -1.058265        -1.041225
 H        -0.097166         0.332213        -1.650181
