19
Iteration:  3707charge 0 multiplicity 1
 O         0.028607        -0.128939         1.248086
 C        -0.879125         0.542638         0.305970
 C        -2.257025         0.699497         0.785529
 C        -1.458828         1.876896         0.657834
 C        -1.857222         2.877359        -0.310022
 C        -2.325772         2.667211        -1.523405
 C        -2.414312         1.514637        -2.380730
 O        -1.934376         0.258593        -1.966584
 C        -0.782402         0.346447        -1.242360
 H         0.904491         0.247506         0.802788
 H        -3.093117         0.495648         0.086819
 H        -2.507001         0.347187         1.770815
 H        -1.052257         2.267221         1.698215
 H        -1.779865         3.961693         0.093727
 H        -2.564748         3.702029        -1.999350
 H        -3.440190         1.259684        -2.801761
 H        -1.836214         1.739030        -3.285641
 H        -0.170626        -0.535822        -1.306987
 H        -0.085873         1.051762        -1.843362
