19
Iteration:  4144charge 0 multiplicity 1
 O         0.037844        -0.133323         1.120533
 C        -0.908069         0.545275         0.277360
 C        -2.254869         0.751931         1.053272
 C        -1.330942         1.951375         0.701523
 C        -2.072280         2.895161        -0.254296
 C        -2.423734         2.718752        -1.527315
 C        -2.176463         1.609735        -2.582998
 O        -1.985237         0.266406        -2.023268
 C        -0.773304         0.123947        -1.165627
 H         1.013592        -0.028349         0.755345
 H        -3.227338         0.722586         0.546347
 H        -2.222689         0.422851         2.095360
 H        -0.797828         2.367308         1.520378
 H        -2.380127         3.805339         0.130817
 H        -3.083291         3.382367        -1.946245
 H        -3.015591         1.514008        -3.315438
 H        -1.171437         1.860639        -3.138134
 H        -0.652022        -1.034291        -1.283275
 H         0.154666         0.617159        -1.717141
