19
Iteration:  3587
 O         0.176036         0.013599         0.976159
 C        -0.970442         0.497681         0.277867
 C        -2.211673         0.428522         1.039138
 C        -1.490207         1.895630         0.638674
 C        -2.144534         2.957979        -0.293846
 C        -2.226094         2.882350        -1.669511
 C        -2.041054         1.635435        -2.448330
 O        -2.113001         0.337684        -1.818883
 C        -0.899092        -0.001609        -1.135957
 H         0.943288         0.465040         0.653026
 H        -3.179848         0.434148         0.578538
 H        -2.321824         0.119911         2.093577
 H        -0.959130         2.360176         1.497794
 H        -2.474763         3.834052         0.380703
 H        -2.478577         3.696782        -2.372800
 H        -2.844835         1.723115        -3.101075
 H        -1.060755         1.807297        -3.032143
 H        -0.705938        -1.063945        -1.251429
 H         0.052362         0.366545        -1.632015
