19
Iteration:  1276
 O         0.100845        -0.182220         1.215359
 C        -0.907018         0.466946         0.329067
 C        -2.297749         0.692741         0.902895
 C        -1.364569         1.934225         0.579854
 C        -1.927064         2.876105        -0.367968
 C        -2.430047         2.836977        -1.632350
 C        -2.351782         1.604515        -2.401519
 O        -1.991142         0.210473        -1.899562
 C        -0.734783         0.240468        -1.185617
 H         1.062201        -0.203786         0.833357
 H        -3.121643         0.597574         0.180392
 H        -2.432524         0.540588         1.955128
 H        -0.801810         2.267273         1.440479
 H        -1.942383         3.866694         0.090621
 H        -2.859114         3.754308        -1.913542
 H        -3.294956         1.483021        -2.937322
 H        -1.583184         1.830357        -3.208780
 H        -0.210175        -0.686835        -1.421894
 H        -0.230729         1.179501        -1.531857
