19
Iteration:  1709
 O         0.141157        -0.093729         1.006434
 C        -0.907975         0.497060         0.292803
 C        -2.365827         0.660798         0.877738
 C        -1.622637         1.970720         0.786677
 C        -1.875559         3.075513        -0.233680
 C        -2.171700         2.824098        -1.574924
 C        -2.423045         1.508911        -2.318949
 O        -1.896266         0.161961        -1.979182
 C        -0.777089         0.106604        -1.216224
 H         0.835696         0.527604         0.919204
 H        -3.201320         0.511669         0.118776
 H        -2.378159         0.092810         1.863622
 H        -1.249072         2.377654         1.692695
 H        -1.736631         4.110797        -0.053036
 H        -2.339154         3.712268        -2.233212
 H        -3.575975         1.303958        -2.419431
 H        -2.071129         1.582603        -3.411299
 H        -0.269701        -0.942069        -1.365589
 H        -0.015911         0.815400        -1.681255
