19
Iteration:  3503
 O         0.154212         0.035998         0.843191
 C        -1.029019         0.454145         0.227788
 C        -2.144963         0.792097         1.248172
 C        -1.435078         1.964972         0.648863
 C        -2.308549         2.890818        -0.195637
 C        -2.460362         2.762980        -1.500847
 C        -1.686039         1.716520        -2.362343
 O        -1.990405         0.371053        -2.094365
 C        -1.072325        -0.300397        -1.161899
 H         0.864745         0.429323         0.310399
 H        -3.107632         0.590286         0.798919
 H        -1.950774         0.337234         2.241823
 H        -0.582010         2.558979         1.231706
 H        -2.620443         3.732252         0.407885
 H        -3.328999         3.257758        -2.047921
 H        -1.950299         1.818636        -3.518585
 H        -0.586132         1.909983        -2.309238
 H        -1.494062        -1.360535        -1.180645
 H        -0.047978        -0.239042        -1.547806
