19
Iteration:  4784
 O         0.118682        -0.015489         1.085557
 C        -0.945755         0.523282         0.253071
 C        -2.278142         0.619532         1.052880
 C        -1.480207         1.881720         0.716813
 C        -2.035839         2.928812        -0.192445
 C        -2.225631         2.757659        -1.508353
 C        -2.224856         1.581967        -2.551230
 O        -1.980923         0.258368        -2.064793
 C        -0.867452         0.118369        -1.221021
 H         0.937910         0.350131         0.853989
 H        -3.160315         0.491732         0.500601
 H        -2.229845         0.347238         2.078072
 H        -1.020390         2.233292         1.599067
 H        -2.042544         3.973885         0.173395
 H        -2.682983         3.673084        -1.934933
 H        -3.241838         1.500715        -3.023402
 H        -1.373223         1.800648        -3.288411
 H        -0.617140        -1.017351        -1.093841
 H         0.105383         0.735926        -1.571706
