19
Iteration:   838charge 0 multiplicity 1
 O         0.080348        -0.047115         1.111166
 C        -0.924261         0.471302         0.326369
 C        -2.193873         0.628926         1.035916
 C        -1.343356         1.934959         0.627770
 C        -2.085062         2.944078        -0.272338
 C        -2.336171         2.846208        -1.571982
 C        -2.221841         1.597084        -2.495549
 O        -2.014710         0.236408        -1.964890
 C        -0.818961         0.083970        -1.210218
 H         0.902054         0.171858         0.663220
 H        -3.112762         0.673884         0.394783
 H        -2.316429         0.385256         2.093207
 H        -0.865349         2.356025         1.489031
 H        -2.315633         3.830747         0.206391
 H        -2.954900         3.585968        -2.099249
 H        -3.231560         1.507916        -2.992461
 H        -1.414668         1.632089        -3.249619
 H        -0.460094        -0.995686        -1.228126
 H        -0.011843         0.657594        -1.668910
