19
Iteration:  3373charge 0 multiplicity 1
 O         0.103744         0.000401         1.031337
 C        -0.928662         0.583071         0.223905
 C        -2.248797         0.582299         0.982767
 C        -1.512456         1.887252         0.674109
 C        -2.025797         2.858387        -0.247629
 C        -2.202617         2.807378        -1.584665
 C        -2.175514         1.631206        -2.417490
 O        -2.118326         0.284811        -1.893414
 C        -0.776535         0.060646        -1.184072
 H         0.898911         0.542116         0.859042
 H        -2.972837         0.305412         0.219131
 H        -2.138941         0.047535         1.903759
 H        -1.169909         2.193891         1.707193
 H        -2.261553         3.842702         0.112161
 H        -2.354116         3.652615        -2.242962
 H        -3.197386         1.557983        -2.961398
 H        -1.314560         1.801826        -3.093723
 H        -0.749291        -1.051087        -1.147146
 H         0.118544         0.537463        -1.698079
