19
Iteration:   764
 O         0.338325         0.300303         0.931489
 C        -0.938380         0.386202         0.272966
 C        -2.190512         0.551013         1.136613
 C        -1.603773         1.773282         0.632989
 C        -2.150924         2.894048        -0.211319
 C        -2.076084         2.880451        -1.588183
 C        -1.954479         1.646744        -2.493807
 O        -2.247167         0.334703        -1.942582
 C        -1.062878        -0.203655        -1.167426
 H         0.728422         1.144689         1.064617
 H        -3.163091         0.404037         0.631630
 H        -2.243476         0.421842         2.213430
 H        -1.016984         2.302306         1.400419
 H        -2.422859         3.773142         0.387082
 H        -2.292590         3.771126        -2.184761
 H        -2.692831         1.662465        -3.401960
 H        -0.890101         1.552186        -2.983905
 H        -1.404690        -1.258097        -0.878860
 H        -0.150515        -0.150257        -1.831935
