19
Iteration:  4548charge 0 multiplicity 1
 O         0.043734        -0.074728         1.208862
 C        -0.913360         0.492192         0.258106
 C        -2.184662         0.720891         0.959084
 C        -1.350931         2.017471         0.691294
 C        -2.069268         2.894798        -0.241619
 C        -2.443526         2.677823        -1.505959
 C        -2.101733         1.691343        -2.516404
 O        -2.055816         0.245306        -2.042722
 C        -0.788258         0.043115        -1.231136
 H         0.927962        -0.035545         0.693063
 H        -3.090343         0.596376         0.404915
 H        -2.239178         0.323742         1.947291
 H        -0.744459         2.382865         1.509599
 H        -2.495548         3.841650         0.365239
 H        -3.087066         3.415337        -2.038923
 H        -2.894809         1.686157        -3.261768
 H        -1.150761         1.888523        -2.888261
 H        -0.625981        -0.976953        -1.286377
 H        -0.002752         0.609905        -1.834836
