19
Iteration:   582
 O         0.356783         0.138026         1.014176
 C        -0.876095         0.502592         0.366240
 C        -2.235631         0.479871         1.025109
 C        -1.646844         1.805125         0.694479
 C        -2.060830         2.861070        -0.247922
 C        -2.085553         2.853918        -1.652613
 C        -2.211428         1.588091        -2.598646
 O        -2.159675         0.392387        -1.926263
 C        -0.941335         0.084081        -1.162371
 H         0.099137        -0.428046         1.805999
 H        -3.051419         0.090621         0.407335
 H        -2.228483         0.178453         2.090631
 H        -1.302714         2.242950         1.661003
 H        -2.275364         3.876295         0.303193
 H        -2.123021         3.816094        -2.197443
 H        -3.183727         1.467118        -3.044644
 H        -1.382234         1.554000        -3.414647
 H        -0.768715        -1.021983        -1.230936
 H        -0.052484         0.568906        -1.658808
