19
Iteration:  1882charge 0 multiplicity 1
 O         0.159462         0.022108         0.957057
 C        -0.961170         0.466310         0.284406
 C        -2.155182         0.686851         1.133989
 C        -1.421452         1.943226         0.618626
 C        -2.186266         2.871721        -0.210502
 C        -2.423993         2.856651        -1.541421
 C        -1.876682         1.678497        -2.536676
 O        -2.028010         0.339658        -2.009629
 C        -1.037788        -0.150753        -1.104223
 H         1.012965         0.431252         0.580313
 H        -3.095031         0.377232         0.585071
 H        -2.000751         0.376641         2.188831
 H        -0.658795         2.361622         1.286981
 H        -2.719674         3.666390         0.384092
 H        -3.118506         3.594093        -2.084634
 H        -2.543442         1.551338        -3.437787
 H        -0.726326         1.838419        -2.730681
 H        -1.339148        -1.178201        -0.912871
 H         0.019258        -0.115506        -1.528282
