19
Iteration:  3112
 O         0.106327         0.019942         0.921100
 C        -0.972406         0.521346         0.233283
 C        -2.116908         0.717487         1.204763
 C        -1.418483         1.919435         0.553649
 C        -2.269373         2.903169        -0.187077
 C        -2.354790         2.786992        -1.494157
 C        -1.799042         1.744460        -2.430043
 O        -2.065490         0.286079        -2.041261
 C        -1.003544        -0.191042        -1.179515
 H         0.815856         0.459887         0.523279
 H        -3.103247         0.622075         0.763227
 H        -1.931127         0.484078         2.203308
 H        -0.708425         2.497666         1.283438
 H        -2.874760         3.545566         0.401216
 H        -3.154395         3.264025        -1.987768
 H        -2.369948         1.773108        -3.294492
 H        -0.681477         1.884712        -2.577265
 H        -1.309308        -1.210583        -0.907226
 H         0.060664        -0.120356        -1.679515
