19
Iteration:  1100charge 0 multiplicity 1
 O         0.214112         0.062634         0.896827
 C        -0.965612         0.564963         0.304046
 C        -2.192531         0.677329         1.170997
 C        -1.345063         1.972896         0.623998
 C        -2.228889         2.845051        -0.216931
 C        -2.412024         2.698615        -1.511138
 C        -1.777202         1.710604        -2.459776
 O        -2.069466         0.317985        -2.105666
 C        -1.117799        -0.181819        -1.106748
 H         0.989116         0.074599         0.259546
 H        -3.231334         0.632550         0.816754
 H        -2.179717         0.713694         2.221557
 H        -0.961609         2.573107         1.503496
 H        -2.770567         3.646348         0.389774
 H        -3.009409         3.498008        -1.932114
 H        -2.180246         1.873364        -3.445181
 H        -0.676567         1.842342        -2.473968
 H        -1.417368        -1.172962        -0.770115
 H        -0.220177        -0.304098        -1.667774
