19
Iteration:  1582
 O         0.224350         0.254261         1.003446
 C        -0.930452         0.489883         0.234674
 C        -2.297513         0.579566         1.165224
 C        -1.543065         1.796551         0.647592
 C        -2.033417         2.893395        -0.203499
 C        -2.163699         2.828920        -1.576590
 C        -2.013525         1.626699        -2.455139
 O        -2.221350         0.285483        -1.992729
 C        -0.991545        -0.144275        -1.207698
 H         0.963545         0.750030         0.658587
 H        -3.134062         0.159622         0.573918
 H        -2.030050         0.115784         2.106510
 H        -0.918672         2.229606         1.423283
 H        -2.018214         3.886789         0.288720
 H        -2.239399         3.841976        -2.132174
 H        -2.624761         1.642381        -3.436029
 H        -0.908931         1.723440        -2.790970
 H        -1.232536        -1.135546        -1.179199
 H        -0.051706         0.221609        -1.713915
