19
Iteration:  4932
 O         0.051895        -0.125281         1.031867
 C        -0.953660         0.566723         0.311941
 C        -2.206156         0.667048         0.942049
 C        -1.401326         1.900681         0.656975
 C        -1.980063         2.864426        -0.262890
 C        -2.482681         2.717826        -1.512898
 C        -2.087025         1.682580        -2.544145
 O        -2.000295         0.284101        -1.955739
 C        -0.857993         0.110696        -1.125727
 H         0.926102         0.380308         0.994254
 H        -3.167562         0.622762         0.351085
 H        -2.075693         0.372550         2.066812
 H        -0.859170         2.309607         1.564697
 H        -2.029863         3.786527         0.255584
 H        -3.238222         3.463207        -1.895993
 H        -2.905946         1.610372        -3.169607
 H        -1.222502         1.954813        -3.072751
 H        -0.459758        -0.851556        -1.094758
 H         0.015005         0.599614        -1.579495
