19
Iteration:  1737charge 0 multiplicity 1
 O         0.072082         0.029527         1.048826
 C        -0.865384         0.603756         0.260543
 C        -2.309154         0.470012         0.871400
 C        -1.501923         1.829868         0.686947
 C        -1.881320         2.903633        -0.283465
 C        -2.038686         2.764830        -1.575016
 C        -2.442468         1.506725        -2.403733
 O        -2.001418         0.296672        -1.900695
 C        -0.852013         0.222529        -1.169728
 H         0.688990         0.731612         1.370019
 H        -3.233021         0.460452         0.297648
 H        -2.342912         0.104697         1.886034
 H        -1.070629         2.265231         1.612488
 H        -2.060693         3.941058         0.090298
 H        -2.157194         3.615374        -2.185736
 H        -3.492101         1.430270        -2.472355
 H        -2.072004         1.545454        -3.399939
 H        -0.498525        -0.739074        -1.291564
 H        -0.011056         0.722257        -1.696284
