19
Iteration:  4870
 O         0.139757         0.144211         1.120809
 C        -0.930844         0.504356         0.245771
 C        -2.276941         0.358192         1.009379
 C        -1.561692         1.798676         0.676527
 C        -1.883688         2.917954        -0.263192
 C        -2.115651         2.799252        -1.604273
 C        -2.265689         1.634603        -2.550395
 O        -2.129102         0.370630        -1.872408
 C        -0.805299         0.088603        -1.193500
 H         0.910683         0.685550         0.772935
 H        -3.036580        -0.046358         0.400815
 H        -2.409350         0.083285         2.037618
 H        -1.205555         2.030447         1.637623
 H        -2.043081         3.945409         0.105523
 H        -2.079118         3.772760        -2.204852
 H        -3.392506         1.623378        -2.867774
 H        -1.691966         1.705321        -3.545086
 H        -0.929692        -1.011947        -1.321428
 H        -0.028891         0.674985        -1.602395
