19
Iteration:  2019charge 0 multiplicity 1
 O         0.238431         0.057475         0.987197
 C        -0.970609         0.433176         0.357340
 C        -2.294188         0.594629         1.069684
 C        -1.459375         1.834556         0.732311
 C        -2.010020         2.846210        -0.350902
 C        -2.327605         2.813739        -1.677928
 C        -2.138368         1.607266        -2.514353
 O        -2.089292         0.362849        -1.856367
 C        -0.882885         0.111915        -1.108971
 H         0.878928         0.295997         0.357207
 H        -3.055234         0.349742         0.272374
 H        -2.635105         0.241512         2.043992
 H        -1.077327         2.267771         1.625616
 H        -2.207379         3.738018         0.184648
 H        -2.395050         3.688426        -2.198123
 H        -2.845311         1.552590        -3.438384
 H        -1.063444         1.725269        -3.050923
 H        -0.781357        -0.999715        -1.053059
 H        -0.024436         0.436968        -1.690818
