19
Iteration:  4405
 O         0.200363         0.045858         1.015013
 C        -0.926367         0.575571         0.369643
 C        -2.259261         0.398550         1.007290
 C        -1.633888         1.829969         0.763762
 C        -2.005472         2.840703        -0.320616
 C        -2.071731         2.832403        -1.657024
 C        -2.190539         1.616286        -2.589670
 O        -2.128505         0.348810        -1.919985
 C        -0.870499         0.110999        -1.116109
 H         0.908403         0.765218         0.822167
 H        -3.251751         0.258036         0.506354
 H        -2.208135         0.098346         2.086351
 H        -1.228397         2.314056         1.690129
 H        -2.060671         3.914491         0.133959
 H        -2.190152         3.822047        -2.291564
 H        -3.283788         1.652679        -2.780352
 H        -1.481043         1.613856        -3.468135
 H        -0.720192        -0.882681        -0.938544
 H         0.043726         0.588822        -1.544847
