19
Iteration:  2972charge 0 multiplicity 1
 O         0.257713        -0.025494         1.018756
 C        -0.974185         0.487293         0.332761
 C        -2.300286         0.513039         0.978950
 C        -1.516476         1.852394         0.594297
 C        -2.053837         2.878416        -0.342030
 C        -2.223436         2.843171        -1.643596
 C        -2.183557         1.604027        -2.516844
 O        -2.095652         0.389795        -1.806327
 C        -0.813228         0.068783        -1.094505
 H         0.758980         0.824321         0.974879
 H        -3.179249         0.154525         0.509865
 H        -2.250492         0.390743         2.016433
 H        -1.082966         2.249090         1.572859
 H        -2.091207         3.796747         0.127278
 H        -2.481339         3.756535        -2.099434
 H        -3.213861         1.666810        -3.053080
 H        -1.359824         1.673668        -3.233607
 H        -0.708873        -1.007280        -1.029037
 H        -0.017022         0.613616        -1.667710
