19
Iteration:  3572
 O         0.225111        -0.033127         0.939105
 C        -0.943782         0.480308         0.368617
 C        -2.230641         0.590649         1.069543
 C        -1.489639         1.868771         0.595860
 C        -2.154366         2.818467        -0.261872
 C        -2.324028         2.860528        -1.634225
 C        -1.965203         1.696657        -2.513640
 O        -2.073198         0.394552        -1.876120
 C        -0.991673        -0.003158        -1.070004
 H         1.037672         0.399176         0.454211
 H        -3.002569         0.195938         0.384834
 H        -2.287577         0.350464         2.121021
 H        -0.992398         2.364030         1.376454
 H        -2.433846         3.760752         0.086418
 H        -2.887082         3.718942        -1.936072
 H        -2.552871         1.603691        -3.494555
 H        -0.888758         1.721549        -2.908341
 H        -0.997776        -1.086330        -0.944897
 H        -0.050541         0.360488        -1.570834
