19
Iteration:  2537charge 0 multiplicity 1
 O         0.082290        -0.027314         1.172682
 C        -0.847274         0.559134         0.321244
 C        -2.174860         0.541064         0.946839
 C        -1.525084         1.911321         0.663901
 C        -1.951922         2.898587        -0.321346
 C        -2.238514         2.771190        -1.623177
 C        -2.315816         1.549646        -2.447759
 O        -2.096631         0.275725        -1.969486
 C        -0.815146         0.214845        -1.152140
 H         1.016349         0.043600         0.845723
 H        -2.872763         0.107133         0.126225
 H        -2.235819         0.306051         2.064479
 H        -1.164471         2.499111         1.636796
 H        -1.708981         3.922681         0.063968
 H        -2.461488         3.636816        -2.308655
 H        -3.385567         1.418627        -2.835800
 H        -1.678989         1.695387        -3.344196
 H        -0.581519        -0.858631        -1.325465
 H        -0.092703         0.820228        -1.593855
