19
Iteration:   515
 O         0.261969         0.013771         0.992502
 C        -0.902169         0.553768         0.324921
 C        -2.301067         0.603170         0.895872
 C        -1.531705         1.878006         0.746331
 C        -2.012674         2.865262        -0.272461
 C        -2.117043         2.798987        -1.577488
 C        -2.297987         1.521873        -2.453360
 O        -2.087899         0.212748        -1.906958
 C        -0.833263         0.247553        -1.206379
 H         0.133916         0.093067         1.976155
 H        -3.071477         0.420694         0.120381
 H        -2.529546         0.161816         1.888617
 H        -1.310216         2.364802         1.651459
 H        -2.132058         3.871198         0.152066
 H        -2.137833         3.719240        -2.087172
 H        -3.317177         1.432557        -2.773436
 H        -1.673107         1.577248        -3.336374
 H        -0.506760        -0.777218        -1.416845
 H        -0.095593         0.803059        -1.810715
