19
Iteration:  4814charge 0 multiplicity 1
 O         0.184675         0.011790         0.966342
 C        -0.976775         0.476019         0.255389
 C        -2.258606         0.475641         0.928213
 C        -1.615746         1.838644         0.741800
 C        -1.985910         2.901116        -0.285148
 C        -2.070781         2.807625        -1.659942
 C        -2.199342         1.548016        -2.484661
 O        -2.080420         0.349447        -1.779883
 C        -0.887047         0.212515        -1.122202
 H         0.799212         0.831501         1.091172
 H        -3.114128         0.243275         0.225590
 H        -2.242582         0.022268         1.977713
 H        -1.333962         2.291820         1.726372
 H        -1.894033         3.910247         0.052039
 H        -2.500248         3.794140        -2.097823
 H        -3.185157         1.465878        -3.055489
 H        -1.480490         1.558464        -3.270184
 H        -0.532696        -0.783881        -1.363130
 H        -0.067828         0.685294        -1.523177
