19
Iteration:  4203charge 0 multiplicity 1
 O         0.258949         0.237726         0.927693
 C        -0.974582         0.415218         0.281520
 C        -2.229129         0.549994         1.071959
 C        -1.593978         1.800601         0.570540
 C        -2.111318         2.866030        -0.278448
 C        -2.183170         2.799969        -1.610129
 C        -1.902817         1.657785        -2.399598
 O        -2.123276         0.395005        -1.855551
 C        -1.080542        -0.140402        -1.144800
 H         0.963799         0.700799         0.576406
 H        -3.149559         0.155428         0.603821
 H        -2.228299         0.499902         2.156609
 H        -1.033066         2.233828         1.485633
 H        -2.604014         3.754926         0.339797
 H        -2.662618         3.725894        -2.135293
 H        -2.393246         1.608797        -3.414916
 H        -0.802955         1.683471        -2.723699
 H        -1.121857        -1.190684        -1.155415
 H        -0.049692         0.235638        -1.556548
