19
Iteration:   188
 O         0.258756         0.065147         0.999576
 C        -0.950811         0.482039         0.306265
 C        -2.231082         0.417114         1.045000
 C        -1.573695         1.864729         0.676919
 C        -2.046728         2.944761        -0.258056
 C        -2.265414         2.883202        -1.551763
 C        -2.179940         1.665648        -2.518587
 O        -2.052086         0.313951        -1.969820
 C        -0.874292         0.122390        -1.119688
 H         0.423022        -0.808957         0.677743
 H        -3.161660         0.073772         0.579641
 H        -2.194971         0.005721         2.077787
 H        -1.112920         2.286402         1.591978
 H        -2.272961         3.944487         0.231949
 H        -2.485106         3.762303        -2.215079
 H        -3.020306         1.576819        -3.220297
 H        -1.200577         1.788988        -3.143104
 H        -0.619073        -0.951054        -1.158771
 H        -0.010696         0.623424        -1.633726
