19
Iteration:  1293charge 0 multiplicity 1
 O         0.028660        -0.127719         1.136939
 C        -0.908229         0.425880         0.337044
 C        -2.241713         0.619150         0.932292
 C        -1.463707         1.870492         0.675658
 C        -1.782170         2.990877        -0.341618
 C        -2.364813         2.803388        -1.565699
 C        -2.398722         1.471605        -2.568963
 O        -2.013728         0.285505        -1.839847
 C        -0.713121         0.315238        -1.209652
 H         0.915574         0.343979         0.940869
 H        -3.146888         0.364031         0.423151
 H        -2.382400         0.278045         1.971563
 H        -1.151074         2.356103         1.648636
 H        -1.682643         4.042927         0.049572
 H        -2.606777         3.670106        -2.233504
 H        -3.440974         1.161715        -2.905776
 H        -1.797759         1.800029        -3.438415
 H        -0.216806        -0.696115        -1.481157
 H        -0.074868         1.102866        -1.604959
