19
Iteration:  3054charge 0 multiplicity 1
 O         0.271794         0.071861         0.966559
 C        -0.985680         0.416972         0.292557
 C        -2.155340         0.653523         1.152199
 C        -1.467550         1.852607         0.564228
 C        -2.213783         2.890071        -0.244158
 C        -2.382487         2.820567        -1.564159
 C        -1.820460         1.708542        -2.519886
 O        -2.026856         0.425009        -1.959946
 C        -1.149889        -0.173656        -1.065092
 H         0.820159         0.245937         0.097906
 H        -3.238025         0.479125         0.872705
 H        -1.884918         0.434802         2.268115
 H        -0.957403         2.401835         1.302556
 H        -2.905557         3.632454         0.357374
 H        -2.920778         3.649487        -2.143010
 H        -2.349109         1.660349        -3.417726
 H        -0.753492         1.890116        -2.873219
 H        -1.314608        -1.321047        -1.130251
 H        -0.124692        -0.123245        -1.603159
