19
Iteration:  2065
 O         0.015649        -0.047919         1.169213
 C        -0.820562         0.546041         0.271053
 C        -2.185870         0.535817         0.912041
 C        -1.451771         1.901776         0.631383
 C        -1.985016         2.950026        -0.293173
 C        -2.241185         2.859262        -1.620234
 C        -2.361508         1.553237        -2.441403
 O        -2.048411         0.249684        -1.863235
 C        -0.771129         0.137763        -1.244621
 H         0.864318         0.377566         1.317622
 H        -3.081044         0.460513         0.259077
 H        -2.306811         0.289551         2.021523
 H        -0.911502         2.241065         1.537391
 H        -2.009130         3.946988         0.213062
 H        -2.697883         3.786185        -2.056186
 H        -3.281860         1.316239        -2.979774
 H        -1.639523         1.570502        -3.348244
 H        -0.352816        -0.911971        -1.415088
 H        -0.071872         0.800394        -1.795932
