19
Iteration:    84
 O         0.189159         0.061931         0.931298
 C        -1.012329         0.432219         0.302211
 C        -2.323674         0.654981         1.052119
 C        -1.438076         1.821667         0.733085
 C        -2.069730         2.831474        -0.136921
 C        -2.146225         2.744437        -1.467317
 C        -2.301472         1.586642        -2.503729
 O        -1.956615         0.244545        -2.100724
 C        -0.793177         0.278302        -1.208067
 H         0.035888        -0.691077         1.491531
 H        -3.081084         0.563364         0.282004
 H        -2.483413         0.160841         2.024827
 H        -0.812771         2.276149         1.474916
 H        -2.400064         3.717626         0.354341
 H        -2.440317         3.677668        -1.981737
 H        -3.343822         1.595953        -2.882869
 H        -1.570482         1.919586        -3.343294
 H        -0.152910        -0.651295        -1.309065
 H        -0.261209         1.245251        -1.440285
