19
Iteration:  3851charge 0 multiplicity 1
 O         0.208548         0.197630         0.889256
 C        -0.918678         0.557888         0.243543
 C        -2.084330         0.557933         1.147144
 C        -1.582835         1.835507         0.658052
 C        -2.267471         2.750491        -0.237442
 C        -2.245570         2.785007        -1.620358
 C        -1.731754         1.656293        -2.426913
 O        -2.118862         0.449954        -1.996382
 C        -1.217955        -0.162339        -1.063178
 H         1.064813         0.607979         0.578863
 H        -2.992814         0.258681         0.620030
 H        -2.020390         0.292057         2.188379
 H        -0.921712         2.389268         1.403190
 H        -2.660096         3.592846         0.226579
 H        -2.561306         3.691279        -2.112500
 H        -2.126225         1.622174        -3.479725
 H        -0.566042         1.795537        -2.566222
 H        -1.639615        -1.151588        -0.813968
 H        -0.249215        -0.302364        -1.522666
