19
Iteration:  3551charge 0 multiplicity 1
 O         0.236059        -0.002774         1.012011
 C        -0.946027         0.496462         0.266476
 C        -2.241297         0.598489         1.197761
 C        -1.431698         1.926305         0.683628
 C        -2.122603         2.860165        -0.248383
 C        -2.430209         2.676011        -1.616655
 C        -1.846463         1.782627        -2.526580
 O        -2.084293         0.423552        -1.983717
 C        -1.034205        -0.102191        -1.195355
 H         0.949340         0.302613         0.470321
 H        -3.220241         0.586660         0.715605
 H        -2.121137         0.436947         2.260676
 H        -0.900772         2.388372         1.407472
 H        -2.728722         3.680860         0.149583
 H        -3.115233         3.389061        -2.010300
 H        -2.322109         1.734401        -3.522183
 H        -0.718199         1.892416        -2.734123
 H        -1.427586        -1.062331        -1.010959
 H        -0.006753        -0.016446        -1.685976
