19
Iteration:  2709charge 0 multiplicity 1
 O         0.221762        -0.011039         0.910503
 C        -0.906041         0.583078         0.182863
 C        -2.147800         0.754384         1.069312
 C        -1.476780         1.993760         0.571013
 C        -2.343177         2.873065        -0.166928
 C        -2.335783         2.746537        -1.513644
 C        -1.752569         1.656259        -2.446310
 O        -2.041911         0.332782        -1.919825
 C        -1.148418        -0.183895        -1.154796
 H         1.004530         0.642689         0.899856
 H        -3.158592         0.544629         0.556478
 H        -1.971531         0.313699         2.137038
 H        -0.848574         2.494290         1.410809
 H        -2.787144         3.704366         0.483362
 H        -3.248913         3.214884        -2.040177
 H        -2.041293         1.648664        -3.464597
 H        -0.652438         1.688580        -2.502357
 H        -1.437007        -1.255870        -1.003379
 H        -0.224331        -0.299636        -1.608871
