19
Iteration:   417
 O         0.071817        -0.051231         1.010350
 C        -0.888720         0.567478         0.187475
 C        -2.169762         0.558971         0.905839
 C        -1.485389         1.920937         0.694365
 C        -2.093079         2.922559        -0.246279
 C        -2.446967         2.805615        -1.585425
 C        -2.092160         1.601295        -2.465235
 O        -2.060445         0.314380        -1.758691
 C        -0.777187         0.059691        -1.217157
 H         0.876218         0.569311         1.236195
 H        -3.067995         0.504294         0.259293
 H        -2.107696         0.020381         1.889695
 H        -0.902335         2.373343         1.472046
 H        -2.025033         3.891190         0.216648
 H        -2.823703         3.614740        -2.136262
 H        -2.653153         1.437038        -3.378185
 H        -0.979663         1.753689        -2.645364
 H        -0.848180        -1.016528        -1.076306
 H        -0.033872         0.319738        -1.919609
