19
Iteration:  1294charge 0 multiplicity 1
 O         0.026079        -0.122732         1.130377
 C        -0.907817         0.428397         0.333048
 C        -2.245397         0.604924         0.933005
 C        -1.467930         1.877485         0.680721
 C        -1.778284         2.990724        -0.339545
 C        -2.357997         2.790552        -1.575985
 C        -2.393598         1.465034        -2.563140
 O        -2.016057         0.292958        -1.839813
 C        -0.712828         0.321505        -1.209003
 H         0.932837         0.355780         0.977782
 H        -3.150992         0.372228         0.426975
 H        -2.359357         0.267907         1.962383
 H        -1.135135         2.339884         1.670514
 H        -1.672104         4.057953         0.043090
 H        -2.576223         3.646619        -2.208937
 H        -3.459716         1.160321        -2.889395
 H        -1.826186         1.829598        -3.444734
 H        -0.285472        -0.686437        -1.450894
 H        -0.077120         1.096981        -1.613611
