19
Iteration:  3403
 O         0.344747         0.115085         0.964539
 C        -1.024030         0.523135         0.316280
 C        -2.317332         0.498681         1.095350
 C        -1.512989         1.826563         0.712874
 C        -2.040329         2.947840        -0.254456
 C        -2.256721         2.746366        -1.575136
 C        -1.932050         1.605176        -2.507342
 O        -2.145983         0.388042        -1.966455
 C        -1.053390         0.003465        -1.136369
 H         1.020549         0.843846         0.662340
 H        -3.098881         0.237782         0.369045
 H        -2.448247        -0.038422         1.986740
 H        -1.037472         2.079843         1.721189
 H        -2.120908         3.921802         0.159958
 H        -2.712688         3.534483        -2.108986
 H        -2.674775         1.668877        -3.388728
 H        -1.004402         1.744260        -3.101860
 H        -1.160538        -1.098578        -1.179778
 H        -0.115071         0.163957        -1.676436
