19
Iteration:  4408
 O         0.214905         0.058948         1.007835
 C        -0.949722         0.564472         0.372432
 C        -2.265365         0.384043         1.008400
 C        -1.641850         1.813619         0.754274
 C        -1.994331         2.870367        -0.310699
 C        -2.055072         2.859184        -1.667396
 C        -2.212290         1.600577        -2.600074
 O        -2.121949         0.340358        -1.894116
 C        -0.875587         0.138854        -1.115539
 H         0.855475         0.683908         0.806651
 H        -3.174380         0.259064         0.458253
 H        -2.232693         0.045272         2.037730
 H        -1.213000         2.288398         1.688935
 H        -2.118686         3.767164         0.108238
 H        -2.096761         3.794405        -2.320020
 H        -3.291042         1.700309        -2.819076
 H        -1.496550         1.622731        -3.456388
 H        -0.641301        -0.965099        -0.834849
 H         0.036496         0.557684        -1.561461
