19
Iteration:   762charge 0 multiplicity 1
 O         0.344469         0.301413         0.924052
 C        -0.954089         0.389818         0.275714
 C        -2.183384         0.565666         1.122144
 C        -1.601679         1.787280         0.658488
 C        -2.153038         2.886143        -0.214230
 C        -2.070793         2.874398        -1.583106
 C        -1.962095         1.654516        -2.488552
 O        -2.223000         0.338306        -1.951311
 C        -1.084405        -0.225919        -1.164323
 H         0.706154         1.227595         1.108697
 H        -3.120702         0.410161         0.572352
 H        -2.247371         0.379521         2.215005
 H        -0.941644         2.273575         1.357777
 H        -2.497913         3.668059         0.342522
 H        -2.253878         3.747080        -2.173883
 H        -2.694741         1.685321        -3.385539
 H        -0.984167         1.550594        -2.979658
 H        -1.417936        -1.281393        -0.870677
 H        -0.190924        -0.157358        -1.803817
