19
Iteration:  1693
 O         0.096513        -0.054506         1.075873
 C        -0.995941         0.522652         0.279575
 C        -2.320504         0.650262         0.866364
 C        -1.505216         1.919456         0.731318
 C        -1.819116         2.919500        -0.297242
 C        -2.291241         2.749014        -1.506929
 C        -2.455602         1.490956        -2.414917
 O        -1.915622         0.261656        -1.964253
 C        -0.720101         0.214309        -1.161575
 H         0.949341         0.258893         0.653749
 H        -3.177372         0.580173         0.195893
 H        -2.632829         0.374332         1.835263
 H        -0.938799         2.218295         1.661544
 H        -1.571693         3.962810         0.072289
 H        -2.308779         3.597108        -2.185610
 H        -3.522774         1.232328        -2.633973
 H        -2.007870         1.850040        -3.331272
 H        -0.473464        -0.804660        -1.213106
 H         0.268494         0.734038        -1.571143
