19
Iteration:  3906
 O         0.117757        -0.052993         0.936457
 C        -1.039078         0.557627         0.245321
 C        -2.156546         0.729082         1.221229
 C        -1.361752         2.001765         0.589171
 C        -2.277785         2.792214        -0.231229
 C        -2.530226         2.740612        -1.494630
 C        -1.806382         1.741049        -2.473539
 O        -1.933543         0.349634        -2.106137
 C        -1.015226        -0.186969        -1.107160
 H         0.872564         0.134807         0.401132
 H        -3.219307         0.864651         1.060623
 H        -1.863391         0.486723         2.245965
 H        -0.584446         2.562161         1.161937
 H        -2.615529         3.555930         0.315444
 H        -3.015179         3.540650        -1.958451
 H        -2.138221         1.655238        -3.524768
 H        -0.706492         2.138772        -2.472455
 H        -1.255258        -1.225290        -0.862652
 H         0.001414        -0.049201        -1.427619
