19
Iteration:  3932
 O         0.095965        -0.101479         1.122423
 C        -0.915611         0.533528         0.281609
 C        -2.135143         0.760935         1.074498
 C        -1.339335         1.986931         0.546356
 C        -2.202269         2.846000        -0.214104
 C        -2.479996         2.646810        -1.497134
 C        -1.873549         1.737730        -2.483935
 O        -2.012618         0.368745        -2.089386
 C        -1.023403        -0.028460        -1.183093
 H         0.994270         0.045114         0.678890
 H        -3.048664         0.401617         0.556972
 H        -2.011186         0.526962         2.160957
 H        -0.715620         2.451046         1.273693
 H        -2.784549         3.705477         0.373136
 H        -3.442871         3.147727        -1.910697
 H        -2.495382         1.720476        -3.415273
 H        -0.722310         2.096452        -2.730696
 H        -1.242590        -1.184551        -0.917338
 H        -0.047872        -0.067672        -1.667579
