19
Iteration:  1996charge 0 multiplicity 1
 O         0.195938         0.110165         0.932868
 C        -0.991900         0.547977         0.216847
 C        -2.203480         0.560851         1.093776
 C        -1.566665         1.861324         0.672126
 C        -2.046664         2.938620        -0.200984
 C        -2.150564         2.745623        -1.559262
 C        -1.976081         1.584910        -2.531991
 O        -2.138347         0.283943        -1.921853
 C        -1.026666        -0.005326        -1.132460
 H         0.911079         0.834992         0.788394
 H        -3.136933         0.264106         0.654443
 H        -2.211787         0.467045         2.160335
 H        -1.122637         2.252155         1.577721
 H        -2.229235         3.867878         0.304514
 H        -2.835935         3.411581        -1.959628
 H        -2.729253         1.750972        -3.444319
 H        -0.890285         1.641488        -2.998348
 H        -0.828331        -1.061854        -1.043521
 H        -0.121423         0.373880        -1.691368
