19
Iteration:   378charge 0 multiplicity 1
 O         0.354521         0.259001         0.972683
 C        -0.955930         0.496480         0.356191
 C        -2.323792         0.511748         1.093511
 C        -1.571432         1.738464         0.736593
 C        -2.120848         2.790432        -0.239812
 C        -2.194955         2.902154        -1.605696
 C        -2.033889         1.649677        -2.581948
 O        -2.068076         0.359906        -1.975096
 C        -1.031604        -0.048126        -1.121023
 H         0.911868        -0.081364         0.241554
 H        -3.102400         0.115675         0.462883
 H        -2.548757         0.189256         2.101387
 H        -1.035107         2.194454         1.588657
 H        -2.218735         3.790100         0.233108
 H        -2.475750         3.899880        -2.010573
 H        -2.917293         1.701785        -3.274152
 H        -1.142165         1.802072        -3.162540
 H        -1.110856        -1.148711        -1.024226
 H         0.034226         0.072366        -1.545194
