19
Iteration:  4837charge 0 multiplicity 1
 O         0.266294         0.097555         1.082138
 C        -0.918710         0.495240         0.310215
 C        -2.330570         0.350159         0.918530
 C        -1.628070         1.734045         0.668752
 C        -1.829123         2.836932        -0.377840
 C        -2.162915         2.825190        -1.685193
 C        -2.213806         1.613715        -2.475707
 O        -2.226400         0.421639        -1.746451
 C        -0.853890         0.215468        -1.159433
 H         0.904587         0.737349         1.208782
 H        -2.951709        -0.059112         0.149961
 H        -2.522815         0.181467         1.980806
 H        -1.463230         2.188255         1.627501
 H        -1.978860         3.829865         0.044426
 H        -1.997933         3.863806        -2.148653
 H        -3.188414         1.657393        -3.115117
 H        -1.456252         1.554155        -3.227234
 H        -0.497480        -0.827546        -1.376191
 H        -0.058870         0.636132        -1.675073
