19
Iteration:  4679
 O         0.257853         0.159530         0.942554
 C        -0.984526         0.454853         0.327709
 C        -2.265100         0.494226         1.174267
 C        -1.531146         1.816016         0.671306
 C        -2.145583         2.880307        -0.235342
 C        -2.271901         2.890412        -1.591288
 C        -1.916791         1.683333        -2.548549
 O        -2.093172         0.368747        -1.967363
 C        -1.013383        -0.111339        -1.158943
 H         1.028176         0.551522         0.416632
 H        -3.116629         0.244682         0.604424
 H        -2.321577         0.225231         2.202198
 H        -0.888177         2.249171         1.409519
 H        -2.387733         3.907865         0.248531
 H        -2.762979         3.698544        -2.019827
 H        -2.496775         1.705007        -3.450295
 H        -0.863742         1.749205        -2.965433
 H        -1.158996        -1.140063        -0.884180
 H         0.056780        -0.015181        -1.611179
