19
Iteration:  3488
 O         0.215233         0.031383         0.828325
 C        -1.001116         0.475481         0.282311
 C        -2.128953         0.636442         1.203989
 C        -1.425097         1.942431         0.625635
 C        -2.206114         2.896696        -0.234116
 C        -2.516805         2.676154        -1.590954
 C        -1.645685         1.760501        -2.419516
 O        -2.006502         0.384798        -2.052100
 C        -1.221906        -0.126215        -1.059615
 H         0.881147         0.297899         0.230191
 H        -3.133929         0.511565         0.775858
 H        -2.074890         0.558261         2.273720
 H        -0.779476         2.270490         1.437587
 H        -2.987667         3.539762         0.276533
 H        -3.144026         3.389809        -2.019921
 H        -1.867086         1.888001        -3.403350
 H        -0.615937         1.962820        -2.150351
 H        -1.501532        -1.185438        -0.877719
 H        -0.181988        -0.109126        -1.442666
