19
Iteration:  3753
 O         0.072707        -0.079038         1.103526
 C        -0.893466         0.541866         0.285166
 C        -2.218999         0.657713         0.955883
 C        -1.472685         1.891056         0.623688
 C        -2.076897         2.927615        -0.210094
 C        -2.318971         2.753848        -1.591147
 C        -2.238332         1.580402        -2.456183
 O        -1.956087         0.313904        -2.012390
 C        -0.816416         0.104994        -1.152571
 H         0.990123         0.270087         1.102201
 H        -3.191751         0.420996         0.547107
 H        -2.113503         0.426011         2.025431
 H        -0.938780         2.444473         1.518396
 H        -2.135665         3.901428         0.217023
 H        -2.807314         3.608645        -2.219622
 H        -3.195082         1.486217        -2.950512
 H        -1.527158         1.711847        -3.247811
 H        -0.565111        -0.989603        -1.146017
 H         0.231269         0.386425        -1.538722
