19
Iteration:  4452
 O         0.185196         0.205793         1.106814
 C        -0.916017         0.525408         0.279575
 C        -2.366353         0.410781         0.846184
 C        -1.639364         1.760525         0.701473
 C        -1.788217         2.833456        -0.280406
 C        -2.087788         2.817220        -1.607269
 C        -2.293060         1.586707        -2.515397
 O        -2.158569         0.312172        -1.763403
 C        -0.850632         0.185646        -1.221580
 H         0.914582         0.663624         0.739707
 H        -3.137630         0.121351         0.183332
 H        -2.391057        -0.064711         1.793483
 H        -1.201909         2.088313         1.656164
 H        -1.737331         3.753077         0.094114
 H        -2.037534         3.815882        -2.065260
 H        -3.275526         1.405822        -2.952030
 H        -1.406360         1.535890        -3.180359
 H        -0.609356        -0.909644        -1.246854
 H        -0.066444         0.787866        -1.714501
