19
Iteration:   377charge 0 multiplicity 1
 O         0.351766         0.265911         0.968344
 C        -0.954653         0.495752         0.354719
 C        -2.322030         0.503570         1.102322
 C        -1.568868         1.742615         0.751617
 C        -2.118486         2.786301        -0.248706
 C        -2.199343         2.901549        -1.605084
 C        -2.035480         1.650530        -2.587626
 O        -2.063386         0.368351        -1.979635
 C        -1.037937        -0.058343        -1.120425
 H         0.896914        -0.085132         0.277564
 H        -3.114679         0.125784         0.473621
 H        -2.539075         0.161232         2.117264
 H        -1.055684         2.202207         1.574030
 H        -2.215097         3.784868         0.210577
 H        -2.428758         3.879029        -2.005199
 H        -2.921701         1.722108        -3.252837
 H        -1.119257         1.793353        -3.170681
 H        -1.116365        -1.142288        -1.022974
 H         0.029839         0.075315        -1.556818
