19
Iteration:  4161
 O         0.072201        -0.119638         1.076111
 C        -0.894061         0.604533         0.321223
 C        -2.135130         0.670032         1.064635
 C        -1.458548         1.966993         0.648557
 C        -2.046772         2.862083        -0.299697
 C        -2.419247         2.688798        -1.584329
 C        -2.038260         1.616727        -2.533271
 O        -1.998259         0.337947        -1.995548
 C        -0.936081         0.036235        -1.166684
 H         0.940985         0.382340         0.872003
 H        -3.018520         0.309845         0.548906
 H        -2.119728         0.408782         2.108728
 H        -1.026898         2.517017         1.515481
 H        -2.532258         3.721279         0.328663
 H        -2.941728         3.687173        -1.900906
 H        -2.929845         1.736718        -3.155551
 H        -1.218453         1.913253        -3.138360
 H        -0.937834        -1.017201        -1.038936
 H        -0.074206         0.414232        -1.613391
