19
Iteration:  3740charge 0 multiplicity 1
 O         0.008119        -0.091513         1.118109
 C        -0.961254         0.526775         0.252301
 C        -2.250868         0.605754         0.988092
 C        -1.433823         1.931383         0.639611
 C        -1.920461         2.942170        -0.340686
 C        -2.409485         2.797583        -1.553655
 C        -2.291088         1.578460        -2.454058
 O        -1.864504         0.277194        -1.929789
 C        -0.716374         0.106977        -1.184562
 H         0.844798         0.396002         0.826681
 H        -3.166637         0.491269         0.392229
 H        -2.278485         0.198817         2.008614
 H        -0.855815         2.299585         1.604739
 H        -2.228979         3.919579         0.172595
 H        -3.012726         3.727697        -1.956672
 H        -3.308570         1.336621        -2.891477
 H        -1.752971         1.919200        -3.289379
 H        -0.615736        -0.952158        -1.158232
 H         0.069098         0.734001        -1.660918
