19
Iteration:  3796
 O         0.195425         0.189211         0.926183
 C        -1.010099         0.505754         0.304255
 C        -2.260549         0.476691         1.098860
 C        -1.534290         1.792817         0.606467
 C        -2.042294         2.850758        -0.262098
 C        -2.248850         2.732204        -1.605656
 C        -1.865138         1.630390        -2.530710
 O        -2.169366         0.408795        -1.870281
 C        -0.995072         0.002298        -1.079989
 H         0.963354         0.742120         0.491643
 H        -3.133374         0.078010         0.598955
 H        -2.047433         0.371879         2.161269
 H        -1.126859         2.189313         1.618132
 H        -2.273848         3.818065         0.132715
 H        -2.662803         3.689410        -2.078637
 H        -2.619946         1.630259        -3.358526
 H        -0.835937         1.791592        -2.870238
 H        -0.939415        -1.090042        -1.093343
 H        -0.086205         0.241480        -1.645455
