19
Iteration:  3197charge 0 multiplicity 1
 O         0.155974        -0.001840         1.017668
 C        -0.931169         0.504062         0.246678
 C        -2.260429         0.560743         0.987314
 C        -1.544545         1.844179         0.610896
 C        -2.133418         2.844694        -0.266621
 C        -2.128214         2.817749        -1.604397
 C        -2.097866         1.590833        -2.546354
 O        -2.135111         0.408780        -1.691830
 C        -0.850456         0.069828        -1.229436
 H         0.969205         0.637567         0.947027
 H        -3.175092         0.125937         0.624468
 H        -2.000234         0.360301         2.019407
 H        -0.988937         2.145861         1.510247
 H        -2.348550         3.743752         0.298391
 H        -2.375922         3.640394        -2.156267
 H        -2.971043         1.596694        -3.172093
 H        -1.323321         1.690853        -3.294782
 H        -0.464109        -0.972247        -1.402578
 H        -0.123495         0.651967        -1.733436
