19
Iteration:  3529
 O         0.073447         0.065156         0.977605
 C        -0.974211         0.499170         0.180781
 C        -2.075715         0.705643         1.188497
 C        -1.369093         1.906065         0.583025
 C        -2.233489         2.831824        -0.131998
 C        -2.446061         2.804464        -1.543212
 C        -1.779637         1.706025        -2.408364
 O        -2.030627         0.315110        -2.145425
 C        -1.111633        -0.163235        -1.107951
 H         0.920795         0.431055         0.558560
 H        -3.078620         0.508267         0.769298
 H        -1.760620         0.409818         2.174314
 H        -0.732373         2.379085         1.226251
 H        -2.728498         3.518056         0.567333
 H        -3.037346         3.570891        -2.044668
 H        -2.133094         1.750918        -3.471265
 H        -0.632524         1.838744        -2.464164
 H        -1.373583        -1.188180        -1.072937
 H        -0.072917         0.136267        -1.471496
