19
Iteration:    55
 O         0.036463        -0.010791         1.129468
 C        -0.884369         0.563119         0.224988
 C        -2.199491         0.532317         0.922545
 C        -1.421951         1.878334         0.730825
 C        -1.909963         2.901357        -0.228320
 C        -2.497193         2.655808        -1.452457
 C        -2.245493         1.630045        -2.502124
 O        -1.993262         0.363143        -1.963878
 C        -0.737907         0.190823        -1.291564
 H         0.133581        -0.928106         0.928815
 H        -3.138354         0.567743         0.391095
 H        -2.154446         0.039102         1.880617
 H        -0.971076         2.366577         1.576829
 H        -1.965164         3.919559         0.169146
 H        -2.847100         3.581251        -1.859239
 H        -3.051616         1.569963        -3.222277
 H        -1.408483         2.025465        -3.051225
 H        -0.423556        -0.837269        -1.330041
 H         0.077548         0.756760        -1.752138
