19
Iteration:  3691
 O         0.003020        -0.124284         1.163403
 C        -0.844276         0.591148         0.304561
 C        -2.259017         0.554724         0.811275
 C        -1.495612         1.958223         0.787469
 C        -1.860509         2.958016        -0.247148
 C        -2.200357         2.749399        -1.635893
 C        -2.441161         1.459297        -2.448973
 O        -2.010090         0.185932        -1.926120
 C        -0.673081         0.344555        -1.250245
 H         0.898781         0.196224         1.208599
 H        -3.060440         0.424554         0.095481
 H        -2.477990         0.097956         1.794225
 H        -1.228652         2.345531         1.728726
 H        -1.917600         3.975257         0.027150
 H        -2.484017         3.648218        -2.121704
 H        -3.560361         1.492987        -2.591322
 H        -2.156277         1.807536        -3.479188
 H        -0.247385        -0.662512        -1.493619
 H        -0.174719         1.209170        -1.587571
