19
Iteration:  1920
 O         0.195439         0.041649         0.919750
 C        -0.943237         0.440363         0.297904
 C        -2.121950         0.647738         1.148135
 C        -1.481060         1.891469         0.622734
 C        -2.288994         2.855768        -0.281184
 C        -2.399221         2.745380        -1.607965
 C        -1.782539         1.657299        -2.483269
 O        -2.121083         0.420887        -1.919771
 C        -1.057047        -0.013664        -1.076519
 H         0.897212         0.009005         0.285548
 H        -3.080393         0.350742         0.823054
 H        -2.008866         0.326732         2.181525
 H        -0.749337         2.520315         1.120086
 H        -2.399985         3.730410         0.300556
 H        -2.876671         3.564497        -2.119398
 H        -1.917093         1.795492        -3.592936
 H        -0.686300         1.713125        -2.490321
 H        -1.220554        -1.138828        -1.018248
 H        -0.083930        -0.040745        -1.702702
