19
Iteration:  1989charge 0 multiplicity 1
 O         0.147848         0.143320         0.906146
 C        -0.977590         0.540240         0.248136
 C        -2.167009         0.569257         1.128315
 C        -1.553237         1.890340         0.707627
 C        -2.067975         2.940688        -0.193617
 C        -2.159506         2.775842        -1.563128
 C        -1.970170         1.586910        -2.501409
 O        -2.155504         0.273013        -1.964503
 C        -0.985335        -0.034361        -1.191209
 H         0.827399         0.872002         0.996076
 H        -3.103770         0.178070         0.595384
 H        -2.052246         0.318828         2.205833
 H        -1.052738         2.156768         1.634376
 H        -2.424051         3.862956         0.272164
 H        -2.672390         3.629004        -2.101254
 H        -2.544847         1.625778        -3.349829
 H        -0.975712         1.544217        -2.975549
 H        -1.082652        -1.184324        -0.917122
 H        -0.045597         0.029843        -1.824215
