19
Iteration:   788charge 0 multiplicity 1
 O         0.233319         0.174187         0.943614
 C        -1.022746         0.490734         0.275083
 C        -2.156577         0.427445         1.112742
 C        -1.617150         1.838049         0.639165
 C        -1.971061         2.869663        -0.358902
 C        -2.243274         2.812227        -1.689673
 C        -1.973674         1.644211        -2.451344
 O        -2.171794         0.410653        -1.793889
 C        -1.071516        -0.041777        -1.106335
 H         1.047430         0.623072         0.512312
 H        -2.983042        -0.125406         0.659752
 H        -1.964817         0.203058         2.145553
 H        -0.980555         2.319685         1.425932
 H        -2.284661         3.868456         0.177519
 H        -2.471833         3.743051        -2.267594
 H        -2.528647         1.530174        -3.400503
 H        -0.823623         1.635774        -2.772001
 H        -0.981478        -1.129516        -1.056609
 H        -0.166098         0.411225        -1.641681
