19
Iteration:  2831charge 0 multiplicity 1
 O         0.169155         0.041754         1.096605
 C        -0.971882         0.409093         0.305264
 C        -2.297769         0.525921         0.868125
 C        -1.476690         1.832400         0.648546
 C        -1.841177         2.920719        -0.368787
 C        -2.299484         2.760171        -1.611733
 C        -2.291858         1.592515        -2.416566
 O        -2.071187         0.291334        -1.821876
 C        -0.831473         0.197966        -1.160811
 H         0.685100         0.907592         1.224455
 H        -3.100127         0.468798         0.142794
 H        -2.513411         0.112770         1.857039
 H        -1.157466         2.210204         1.699668
 H        -1.664849         3.917921        -0.040236
 H        -2.426292         3.678042        -2.163022
 H        -3.176951         1.407821        -2.978817
 H        -1.472246         1.826716        -3.216825
 H        -0.308580        -0.792412        -1.319159
 H        -0.125145         0.976110        -1.540232
