19
Iteration:  1911charge 0 multiplicity 1
 O         0.155456        -0.001542         0.938139
 C        -0.929395         0.534857         0.244814
 C        -2.085126         0.676471         1.171018
 C        -1.490194         1.971133         0.583628
 C        -2.293686         2.845022        -0.220938
 C        -2.406877         2.766705        -1.599355
 C        -1.766500         1.653642        -2.435321
 O        -2.109046         0.393672        -1.924905
 C        -1.039427        -0.105163        -1.173657
 H         0.897862        -0.175431         0.373200
 H        -2.986332         0.246569         0.700592
 H        -1.910211         0.452579         2.252074
 H        -0.840953         2.472997         1.290033
 H        -2.852387         3.643271         0.278159
 H        -2.530873         3.608472        -2.200701
 H        -2.178849         1.617403        -3.386556
 H        -0.711284         1.709790        -2.455161
 H        -1.200507        -1.233717        -1.015779
 H        -0.117625         0.196566        -1.667477
