19
Iteration:  4995
 O         0.201810         0.046508         0.983351
 C        -0.923409         0.533847         0.265254
 C        -2.238206         0.462848         1.030326
 C        -1.546374         1.878697         0.696120
 C        -2.107092         2.879549        -0.260122
 C        -2.333178         2.773120        -1.592460
 C        -1.970565         1.667597        -2.476958
 O        -2.027631         0.415272        -1.916920
 C        -0.999138        -0.003682        -1.113287
 H         0.938271         0.391565         0.403469
 H        -3.181122         0.313107         0.434704
 H        -2.283948         0.092188         2.132232
 H        -0.971340         2.427871         1.536947
 H        -2.324364         3.848370         0.164928
 H        -2.678867         3.601778        -2.120900
 H        -2.680651         1.589205        -3.377508
 H        -0.878883         1.901734        -2.873115
 H        -1.118557        -1.132969        -1.003187
 H        -0.007712         0.195724        -1.719607
