19
Iteration:  3968charge 0 multiplicity 1
 O         0.111019         0.009040         0.996633
 C        -1.002517         0.458065         0.217137
 C        -2.246925         0.621558         1.046720
 C        -1.482772         1.889943         0.622364
 C        -2.050898         2.894100        -0.282231
 C        -2.370970         2.805229        -1.539268
 C        -1.994007         1.639863        -2.445977
 O        -2.023518         0.332243        -1.873289
 C        -0.863076        -0.014735        -1.175983
 H         0.874509         0.578784         0.735108
 H        -3.139336         0.333139         0.504230
 H        -2.238539         0.304537         2.079372
 H        -0.780953         2.429532         1.337093
 H        -2.313573         3.944515         0.290425
 H        -3.087802         3.539052        -1.910168
 H        -2.672856         1.647347        -3.348087
 H        -0.907223         1.913980        -2.880346
 H        -0.867287        -1.136000        -1.112841
 H         0.049168         0.370364        -1.755817
