19
Iteration:  3407charge 0 multiplicity 1
 O         0.344562         0.136620         0.948016
 C        -1.046353         0.482501         0.310846
 C        -2.296106         0.505158         1.111848
 C        -1.525998         1.829389         0.696524
 C        -2.029030         2.939061        -0.261041
 C        -2.272300         2.735176        -1.612818
 C        -1.931385         1.639753        -2.483908
 O        -2.150745         0.392114        -1.967265
 C        -1.037223        -0.034092        -1.118385
 H         0.931009         0.787569         0.666306
 H        -3.134589         0.200836         0.484072
 H        -2.430395        -0.016120         2.095166
 H        -1.043362         2.092267         1.634795
 H        -2.239218         3.935769         0.188374
 H        -2.644255         3.746196        -1.998552
 H        -2.557379         1.801512        -3.434174
 H        -0.945914         1.743007        -2.995447
 H        -1.115897        -1.134834        -1.143998
 H        -0.075412         0.141981        -1.680964
