19
Iteration:  2983
 O         0.292243         0.040544         0.940865
 C        -0.955453         0.463689         0.329536
 C        -2.314400         0.593741         0.983580
 C        -1.552033         1.796685         0.683784
 C        -1.980270         2.797823        -0.309860
 C        -2.269528         2.832888        -1.666212
 C        -2.092189         1.655020        -2.486913
 O        -2.095799         0.343358        -1.820456
 C        -0.954556         0.107266        -1.080198
 H         0.938831         0.857464         0.919314
 H        -3.164168         0.312781         0.417923
 H        -2.306965         0.360730         1.987773
 H        -1.212530         2.387219         1.608438
 H        -2.315821         3.648005         0.151939
 H        -2.383019         3.708848        -2.218622
 H        -3.013170         1.422254        -3.252020
 H        -1.247824         1.754858        -3.179371
 H        -0.944543        -0.973746        -1.153567
 H         0.114180         0.329331        -1.426777
