19
Iteration:  3199charge 0 multiplicity 1
 O         0.162075         0.001210         1.029266
 C        -0.931287         0.483686         0.230201
 C        -2.267703         0.560177         0.992778
 C        -1.552967         1.833816         0.617701
 C        -2.106789         2.851367        -0.263901
 C        -2.127720         2.837203        -1.619815
 C        -2.127689         1.579251        -2.544891
 O        -2.120381         0.410745        -1.697330
 C        -0.857706         0.089423        -1.214411
 H         0.940229         0.638029         0.951022
 H        -3.131340         0.125050         0.589952
 H        -1.988053         0.310756         2.011751
 H        -0.992728         2.135280         1.587185
 H        -2.349717         3.712113         0.306366
 H        -2.449092         3.672665        -2.235706
 H        -2.925024         1.563956        -3.168595
 H        -1.299116         1.634917        -3.295000
 H        -0.497341        -0.925512        -1.427937
 H        -0.132940         0.640437        -1.770472
