19
Iteration:  2869charge 0 multiplicity 1
 O         0.074461        -0.093763         1.062845
 C        -0.976311         0.593368         0.282677
 C        -2.238810         0.560145         0.951205
 C        -1.485725         1.991816         0.797013
 C        -1.904329         2.895260        -0.334431
 C        -2.159621         2.727646        -1.611640
 C        -2.442407         1.518062        -2.432479
 O        -1.915083         0.243374        -2.003345
 C        -0.791038         0.205990        -1.175452
 H         0.417278         0.666910         1.601845
 H        -3.248708         0.487280         0.442431
 H        -2.071451         0.009965         1.883902
 H        -1.114365         2.496546         1.644092
 H        -1.968112         3.973569         0.036764
 H        -2.399350         3.682065        -2.184972
 H        -3.589516         1.582777        -2.589359
 H        -2.155902         1.672296        -3.466638
 H        -0.339769        -0.770265        -1.295654
 H         0.091044         0.804071        -1.526696
