19
Iteration:  3606charge 0 multiplicity 1
 O         0.123316         0.093339         1.077635
 C        -0.907242         0.533272         0.188927
 C        -2.225696         0.545946         0.969356
 C        -1.638008         1.825216         0.666374
 C        -1.982579         2.896052        -0.228666
 C        -2.130277         2.812935        -1.558298
 C        -2.162845         1.596247        -2.513124
 O        -2.116186         0.311291        -1.817801
 C        -0.872363         0.061292        -1.244929
 H         0.921749         0.655481         0.855972
 H        -2.992784        -0.025999         0.503991
 H        -2.047996         0.215958         2.014031
 H        -1.162879         2.168455         1.474749
 H        -1.998418         3.881825         0.187448
 H        -2.474013         3.720505        -1.926180
 H        -3.141277         1.551974        -3.055292
 H        -1.251563         1.655804        -3.197917
 H        -0.802809        -1.002480        -1.280129
 H         0.043720         0.373023        -1.860460
