19
Iteration:  3235charge 0 multiplicity 1
 O         0.211964         0.036171         1.157773
 C        -0.917906         0.525293         0.341884
 C        -2.294631         0.453617         0.881041
 C        -1.514226         1.820782         0.679580
 C        -1.802995         2.888421        -0.301383
 C        -2.277260         2.783754        -1.543153
 C        -2.393059         1.618852        -2.590558
 O        -2.063082         0.349103        -1.962417
 C        -0.885791         0.161029        -1.100797
 H         1.001259         0.585797         0.906008
 H        -3.006545        -0.155093         0.234736
 H        -2.389937         0.271096         1.955243
 H        -1.430716         2.243559         1.687882
 H        -1.515633         3.915111         0.026860
 H        -2.206984         3.848004        -2.112841
 H        -3.341606         1.402220        -3.120635
 H        -1.505280         1.755040        -3.249134
 H        -0.769197        -0.910332        -1.105701
 H        -0.003422         0.775333        -1.519120
