19
Iteration:  4942charge 0 multiplicity 1
 O         0.004108        -0.087043         1.107784
 C        -0.897872         0.433478         0.253018
 C        -2.191361         0.692301         1.010813
 C        -1.311292         1.886983         0.580487
 C        -2.051261         2.899585        -0.220576
 C        -2.513388         2.715775        -1.500869
 C        -2.114598         1.685578        -2.588864
 O        -2.007284         0.359497        -1.929326
 C        -0.782157         0.058833        -1.173163
 H         0.809206         0.448182         1.029017
 H        -3.148846         0.420372         0.469986
 H        -2.225273         0.323416         2.123068
 H        -0.820760         2.411023         1.484138
 H        -2.325988         3.805947         0.270256
 H        -2.982055         3.586325        -1.925308
 H        -2.768303         1.533524        -3.381747
 H        -1.189204         1.901113        -3.131092
 H        -0.733492        -0.984748        -1.227904
 H        -0.038146         0.637102        -1.670168
