19
Iteration:   402charge 0 multiplicity 1
 O         0.203479         0.050648         0.974865
 C        -0.918927         0.518052         0.261120
 C        -2.247917         0.526336         0.897196
 C        -1.527717         1.868958         0.613344
 C        -2.079975         2.986884        -0.258050
 C        -2.341030         2.806912        -1.562965
 C        -1.996926         1.593718        -2.372421
 O        -2.094628         0.323279        -1.807588
 C        -0.896390        -0.027217        -1.166613
 H         0.951515         0.386580         0.521844
 H        -3.140526         0.197537         0.368147
 H        -2.363096         0.233465         1.923462
 H        -1.144814         2.312394         1.599059
 H        -2.542480         3.903231         0.153873
 H        -2.786642         3.714864        -2.114773
 H        -2.797273         1.743632        -3.140934
 H        -1.058512         1.737517        -2.863160
 H        -0.555582        -1.103512        -1.202332
 H        -0.012576         0.524233        -1.632358
