19
Iteration:  3760
 O         0.115121        -0.073417         1.099904
 C        -0.842914         0.555487         0.318214
 C        -2.205522         0.671922         0.990846
 C        -1.466643         1.924760         0.661173
 C        -2.175809         2.894550        -0.226693
 C        -2.290842         2.739771        -1.554272
 C        -2.159668         1.611396        -2.516049
 O        -2.039400         0.289845        -2.031262
 C        -0.834698         0.043395        -1.154656
 H         0.981659         0.505973         0.969554
 H        -3.122542         0.332197         0.481189
 H        -2.249678         0.393131         2.044271
 H        -1.053030         2.380690         1.591020
 H        -2.180059         3.943959         0.283362
 H        -2.387898         3.660316        -2.186880
 H        -3.141926         1.683320        -3.137300
 H        -1.434423         1.785851        -3.390825
 H        -0.746989        -1.018150        -1.100706
 H         0.020099         0.485143        -1.649637
