19
Iteration:  4305
 O         0.125104        -0.023208         1.009523
 C        -0.925535         0.524975         0.253833
 C        -2.138612         0.687093         1.128254
 C        -1.397533         1.920313         0.579988
 C        -2.203654         2.891945        -0.276974
 C        -2.479212         2.749781        -1.555829
 C        -1.859160         1.704651        -2.448512
 O        -2.036574         0.357288        -2.043917
 C        -1.027221        -0.107854        -1.120412
 H         1.099750         0.131206         0.658139
 H        -3.142511         0.458549         0.764489
 H        -2.016763         0.539076         2.209798
 H        -0.782859         2.320445         1.322108
 H        -2.815172         3.559992         0.510269
 H        -3.117096         3.440944        -1.999364
 H        -2.251753         1.762029        -3.487133
 H        -0.704167         1.859973        -2.591955
 H        -1.135069        -1.119761        -0.822511
 H         0.000902         0.171011        -1.522165
