19
Iteration:  2950charge 0 multiplicity 1
 O         0.058797        -0.013930         1.213016
 C        -0.875905         0.494513         0.233527
 C        -2.136783         0.513706         0.953441
 C        -1.552241         1.844270         0.720479
 C        -1.947249         2.953620        -0.368645
 C        -2.261801         2.840605        -1.655986
 C        -2.261073         1.565932        -2.483210
 O        -2.084627         0.313915        -1.817896
 C        -0.799232         0.160868        -1.279903
 H         0.880280         0.419914         0.946990
 H        -2.962415         0.200423         0.379150
 H        -2.148312         0.112670         1.939384
 H        -0.978525         2.284463         1.609128
 H        -2.169878         3.829768         0.124875
 H        -2.439318         3.692326        -2.258234
 H        -3.339644         1.532456        -2.840352
 H        -1.518555         1.639279        -3.274132
 H        -0.680895        -0.903295        -1.370062
 H        -0.035437         0.825572        -1.782182
