19
Iteration:  1953charge 0 multiplicity 1
 O         0.246640         0.133652         0.920312
 C        -0.946632         0.445917         0.337760
 C        -2.202194         0.629016         1.152857
 C        -1.491689         1.822958         0.586894
 C        -2.157641         2.880138        -0.208140
 C        -2.291051         2.827149        -1.570337
 C        -1.877595         1.657526        -2.535989
 O        -2.084667         0.373259        -2.003563
 C        -1.090289        -0.161776        -1.108588
 H         0.823710         0.967061         0.823521
 H        -3.040067         0.191428         0.655703
 H        -2.119267         0.558236         2.235837
 H        -0.899222         2.291036         1.369789
 H        -2.619657         3.727025         0.300764
 H        -2.813448         3.634484        -1.978491
 H        -2.610237         1.828204        -3.370550
 H        -0.808751         1.864608        -2.839908
 H        -1.609746        -1.146819        -0.975744
 H        -0.022071        -0.318112        -1.525164
