19
Iteration:   758charge 0 multiplicity 1
 O         0.353661         0.305269         0.909933
 C        -0.975352         0.420054         0.278308
 C        -2.185259         0.575650         1.108554
 C        -1.586345         1.824858         0.686718
 C        -2.146892         2.848747        -0.237282
 C        -2.067893         2.855540        -1.567604
 C        -1.977062         1.660394        -2.480694
 O        -2.176662         0.342234        -1.957488
 C        -1.137878        -0.262595        -1.149615
 H         0.590693         1.211364         1.123671
 H        -3.053387         0.361009         0.485721
 H        -2.236047         0.279238         2.156790
 H        -0.790103         2.249362         1.341687
 H        -2.674752         3.700051         0.340521
 H        -2.232468         3.782571        -2.161284
 H        -2.670623         1.769940        -3.260318
 H        -1.040755         1.595874        -3.014950
 H        -1.401288        -1.273963        -0.970089
 H        -0.215102        -0.185570        -1.721095
