19
Iteration:  2269
 O         0.207553         0.083989         0.931227
 C        -1.063964         0.428671         0.325376
 C        -2.171898         0.636976         1.196177
 C        -1.448306         1.903019         0.562643
 C        -2.124193         2.845110        -0.284828
 C        -2.359801         2.729785        -1.608329
 C        -1.844788         1.710156        -2.518719
 O        -2.046927         0.357396        -1.933720
 C        -1.106296        -0.025924        -1.087374
 H         0.936304         0.254180         0.326261
 H        -3.219826         0.278102         0.799163
 H        -1.929477         0.561067         2.291549
 H        -0.824746         2.393535         1.371623
 H        -2.623592         3.648569         0.377730
 H        -3.085590         3.342522        -2.132685
 H        -2.327066         1.730246        -3.467053
 H        -0.792797         1.887762        -2.715937
 H        -1.074359        -1.090523        -1.171180
 H        -0.015575         0.120065        -1.437313
