19
Iteration:  4881
 O         0.109887         0.103906         1.047326
 C        -0.968923         0.543942         0.302580
 C        -2.273079         0.460951         0.979720
 C        -1.560543         1.815572         0.696429
 C        -1.931058         2.874561        -0.275115
 C        -2.076673         2.823802        -1.602616
 C        -2.261134         1.602366        -2.407299
 O        -2.041842         0.305700        -1.933409
 C        -0.876821         0.124382        -1.216451
 H         0.888996         0.471797         0.691446
 H        -3.137221         0.252626         0.410951
 H        -2.115098         0.033297         1.943012
 H        -1.105807         2.240713         1.551458
 H        -2.177558         3.786403         0.284629
 H        -2.401275         3.719734        -2.214391
 H        -3.331594         1.613349        -2.843429
 H        -1.515989         1.790469        -3.269323
 H        -0.625597        -0.982389        -1.122573
 H        -0.003874         0.492041        -1.754081
