19
Iteration:  3445
 O         0.216536         0.106836         0.944909
 C        -1.003281         0.461925         0.246198
 C        -2.113703         0.526458         1.226646
 C        -1.541573         1.879321         0.552241
 C        -2.309827         2.894118        -0.232037
 C        -2.233880         2.823288        -1.585071
 C        -1.781101         1.725840        -2.444437
 O        -2.112802         0.452865        -1.940549
 C        -1.081556        -0.214474        -1.145258
 H         0.965358         0.531547         0.409262
 H        -3.159587         0.264644         0.978588
 H        -1.738887         0.236264         2.183817
 H        -0.713650         2.485075         1.000776
 H        -3.050271         3.599457         0.160874
 H        -2.541866         3.592771        -2.204288
 H        -2.287159         1.831876        -3.384460
 H        -0.707484         1.779033        -2.700105
 H        -1.360530        -1.290880        -1.066538
 H        -0.106918        -0.217571        -1.641779
