19
Iteration:   919
 O         0.101465        -0.061057         0.964330
 C        -0.889814         0.604280         0.257353
 C        -2.310481         0.514155         0.938763
 C        -1.600938         1.912510         0.703316
 C        -1.895308         2.838252        -0.359030
 C        -2.152554         2.769242        -1.641686
 C        -2.360816         1.534164        -2.360772
 O        -2.011895         0.343403        -1.773187
 C        -0.758033         0.217318        -1.223032
 H         0.529205         0.373130         1.761614
 H        -3.112870         0.062487         0.374990
 H        -2.126991         0.079445         1.926046
 H        -1.191999         2.434307         1.619120
 H        -1.746981         3.961055        -0.031396
 H        -2.245346         3.640806        -2.297195
 H        -3.546828         1.496262        -2.589973
 H        -1.828101         1.631180        -3.351729
 H        -0.344566        -0.852372        -1.298796
 H        -0.017295         0.891773        -1.726405
