19
Iteration:  4356
 O         0.044238        -0.025144         1.056084
 C        -0.985272         0.496918         0.262233
 C        -2.222022         0.684666         0.993074
 C        -1.324700         1.947226         0.551081
 C        -2.066598         2.874643        -0.220535
 C        -2.453015         2.778002        -1.540697
 C        -2.032987         1.675926        -2.420091
 O        -1.969330         0.287678        -1.944882
 C        -0.889096        -0.024348        -1.211015
 H         0.841266         0.311895         0.685414
 H        -3.093239         0.543300         0.414515
 H        -2.225731         0.327586         2.002780
 H        -0.799412         2.374774         1.409903
 H        -2.344674         3.800440         0.318965
 H        -3.286158         3.348679        -1.847488
 H        -2.735881         1.593871        -3.266738
 H        -0.996531         1.872544        -2.691459
 H        -0.695492        -1.158195        -1.027774
 H         0.005280         0.503929        -1.524264
