19
Iteration:  1076
 O         0.145519        -0.112206         1.023037
 C        -0.995723         0.504935         0.197604
 C        -2.036680         0.699186         1.219257
 C        -1.351396         2.008131         0.634419
 C        -2.258048         2.949902        -0.267484
 C        -2.515450         2.747448        -1.605262
 C        -1.861821         1.710637        -2.426937
 O        -2.014855         0.321595        -2.083545
 C        -1.058285        -0.130838        -1.154197
 H         0.966153         0.318490         0.998325
 H        -3.123656         0.551955         0.925483
 H        -1.830401         0.466411         2.284743
 H        -0.529786         2.571524         1.122787
 H        -2.822548         3.769026         0.238394
 H        -3.289301         3.459486        -1.962255
 H        -2.290198         1.777236        -3.483078
 H        -0.805068         1.954718        -2.426900
 H        -1.126458        -1.170469        -0.997442
 H        -0.128500        -0.007659        -1.685413
