19
Iteration:  2436charge 0 multiplicity 1
 O         0.135070         0.104568         1.131211
 C        -0.905174         0.426984         0.290544
 C        -2.297859         0.569852         0.877479
 C        -1.435703         1.781111         0.606780
 C        -1.968488         2.910487        -0.298725
 C        -2.297644         2.802003        -1.588088
 C        -2.257182         1.602750        -2.467662
 O        -2.082677         0.357635        -1.795204
 C        -0.755095         0.088784        -1.168309
 H         0.879565         0.606024         0.833072
 H        -2.959045         0.272451         0.155584
 H        -2.567929         0.210774         1.842728
 H        -0.834338         2.082127         1.400117
 H        -2.101366         3.845119         0.213138
 H        -2.607167         3.648534        -2.201997
 H        -3.205941         1.478424        -3.046264
 H        -1.536403         1.665513        -3.368967
 H        -0.754478        -1.014611        -1.271513
 H         0.040127         0.546743        -1.719678
