19
Iteration:   700
 O         0.225847        -0.058633         0.899982
 C        -0.984162         0.478685         0.348742
 C        -2.143548         0.663631         1.223219
 C        -1.405723         1.895472         0.566324
 C        -2.247700         2.860395        -0.288632
 C        -2.412399         2.784857        -1.604325
 C        -1.822051         1.665888        -2.437414
 O        -2.159129         0.328068        -1.988025
 C        -0.987384        -0.017667        -1.193669
 H         0.658547         0.836679         1.170787
 H        -3.210916         0.661548         1.031034
 H        -1.967474         0.664285         2.306485
 H        -0.762939         2.407898         1.323217
 H        -2.551332         3.840085         0.241081
 H        -3.044451         3.447018        -2.195070
 H        -2.244559         1.904691        -3.394221
 H        -0.760556         1.739591        -2.388328
 H        -0.955559        -1.107861        -1.206376
 H        -0.012462         0.228082        -1.637610
