19
Iteration:   390
 O         0.324899         0.149095         0.984372
 C        -0.938310         0.459447         0.326102
 C        -2.316573         0.518574         0.980261
 C        -1.612646         1.832783         0.557422
 C        -2.092856         2.905556        -0.220148
 C        -2.190865         2.827386        -1.534038
 C        -2.037758         1.688015        -2.474398
 O        -2.109815         0.299566        -1.904348
 C        -0.928570        -0.000500        -1.083678
 H         1.005554         0.117566         0.216928
 H        -3.086540         0.247466         0.267196
 H        -2.391634         0.493226         2.043871
 H        -1.131269         2.198591         1.521356
 H        -2.468846         3.729939         0.426840
 H        -2.816228         3.603650        -2.083744
 H        -2.821920         1.576120        -3.273322
 H        -1.114445         1.727797        -3.018171
 H        -0.988965        -1.123611        -1.091625
 H        -0.026734         0.397947        -1.678706
