19
Iteration:  4066charge 0 multiplicity 1
 O         0.177493        -0.007243         1.106838
 C        -0.914051         0.517564         0.288096
 C        -2.337403         0.467588         0.846281
 C        -1.612030         1.868713         0.672611
 C        -1.894790         2.893996        -0.318921
 C        -2.055544         2.798696        -1.602514
 C        -2.374391         1.517085        -2.477819
 O        -2.057313         0.318023        -1.817156
 C        -0.777029         0.247295        -1.194592
 H         0.850867         0.724064         1.140498
 H        -3.131323         0.050704         0.248980
 H        -2.407652         0.257189         1.898910
 H        -1.352757         2.327948         1.637901
 H        -1.916683         3.886985         0.314320
 H        -2.157241         3.733258        -2.133630
 H        -3.467091         1.537316        -2.738802
 H        -1.866558         1.704094        -3.369668
 H        -0.643604        -0.927493        -1.262124
 H        -0.057858         0.913846        -1.701595
