19
Iteration:   494charge 0 multiplicity 1
 O         0.087560        -0.049230         0.892701
 C        -1.004477         0.655578         0.266858
 C        -2.205181         0.512348         1.023435
 C        -1.545274         1.966782         0.824104
 C        -1.898682         2.995065        -0.280273
 C        -2.217131         2.706489        -1.542626
 C        -2.332615         1.512655        -2.507839
 O        -1.931107         0.225061        -2.018180
 C        -0.790175         0.182505        -1.115192
 H         0.054783         0.108378         1.878136
 H        -3.197268         0.334402         0.572513
 H        -2.157076         0.232327         2.085508
 H        -1.028230         2.378326         1.642665
 H        -1.910044         4.047649         0.055063
 H        -2.725782         3.478566        -2.047252
 H        -3.326064         1.427400        -2.908516
 H        -1.703238         1.803966        -3.301905
 H        -0.382900        -0.831866        -1.174706
 H        -0.012659         0.743521        -1.602406
