19
Iteration:  4314charge 0 multiplicity 1
 O         0.087913        -0.061654         1.041980
 C        -0.902126         0.496071         0.291425
 C        -2.090785         0.713443         1.062569
 C        -1.391823         1.998261         0.605240
 C        -2.164636         2.867893        -0.248215
 C        -2.523262         2.776482        -1.563498
 C        -1.887430         1.685825        -2.446570
 O        -2.029061         0.319759        -2.048334
 C        -0.988150        -0.058208        -1.115351
 H         1.015189         0.036974         0.556529
 H        -2.932620         0.470407         0.467566
 H        -2.058169         0.433192         2.103859
 H        -0.796986         2.468278         1.364356
 H        -2.907389         3.649152         0.254486
 H        -3.283852         3.336007        -1.975676
 H        -2.390803         1.831387        -3.397085
 H        -0.804040         1.969473        -2.388438
 H        -1.236062        -1.026310        -1.042236
 H         0.015434        -0.136318        -1.647683
