19
Iteration:  2862
 O         0.107573        -0.059772         1.111085
 C        -0.929248         0.565092         0.272765
 C        -2.258626         0.591486         0.967780
 C        -1.485403         1.890198         0.766617
 C        -1.891147         2.891958        -0.296036
 C        -2.147186         2.712053        -1.635293
 C        -2.458131         1.590851        -2.501802
 O        -1.973381         0.248432        -2.003064
 C        -0.746168         0.228434        -1.180199
 H         0.362084         0.671511         1.627571
 H        -3.268497         0.683667         0.489243
 H        -2.213910         0.020821         1.946060
 H        -1.255767         2.263419         1.809275
 H        -1.900177         3.936872        -0.089339
 H        -2.641993         3.566530        -2.190791
 H        -3.524806         1.486564        -2.443009
 H        -1.966001         1.526041        -3.529584
 H        -0.456079        -0.839493        -1.078889
 H        -0.094972         0.934161        -1.775260
