19
Iteration:   388
 O         0.338974         0.167478         0.985495
 C        -0.942303         0.461904         0.334635
 C        -2.324452         0.522976         0.998709
 C        -1.611403         1.818386         0.579447
 C        -2.100328         2.882098        -0.210723
 C        -2.182241         2.846809        -1.552001
 C        -2.043452         1.687569        -2.492566
 O        -2.108031         0.300362        -1.918507
 C        -0.943405        -0.000422        -1.085641
 H         0.982752         0.082408         0.198001
 H        -3.061015         0.222657         0.269034
 H        -2.415491         0.475118         2.083872
 H        -1.121348         2.138465         1.485031
 H        -2.413380         3.727058         0.439104
 H        -2.766082         3.610593        -2.047832
 H        -2.795620         1.537261        -3.293034
 H        -1.105016         1.760568        -3.093346
 H        -1.051296        -1.085102        -1.080041
 H         0.011274         0.337503        -1.665596
