19
Iteration:   816
 O         0.305046        -0.068123         1.049773
 C        -0.898648         0.560021         0.307562
 C        -2.300566         0.649132         1.035207
 C        -1.515111         1.930036         0.670559
 C        -2.132727         2.833295        -0.303695
 C        -2.256724         2.798109        -1.611031
 C        -2.096554         1.615476        -2.581100
 O        -2.094355         0.380511        -1.854602
 C        -0.937384         0.044689        -1.112490
 H         1.016790        -0.183499         0.355505
 H        -3.080407         0.145189         0.396847
 H        -2.309355         0.439305         2.111463
 H        -1.069135         2.430691         1.494470
 H        -2.410701         3.717766         0.132732
 H        -2.638534         3.638822        -2.174595
 H        -3.058948         1.452345        -3.160822
 H        -1.202038         1.746689        -3.189926
 H        -0.726012        -1.076670        -1.105386
 H        -0.053010         0.443932        -1.611633
