19
Iteration:  2993charge 0 multiplicity 1
 O         0.273924         0.100213         0.889112
 C        -0.923196         0.513000         0.380450
 C        -2.317849         0.550228         1.064135
 C        -1.569026         1.846765         0.719630
 C        -1.985779         2.828382        -0.304902
 C        -2.247316         2.791211        -1.608265
 C        -2.036887         1.597628        -2.534390
 O        -2.103381         0.378503        -1.878394
 C        -1.007529        -0.010262        -1.110830
 H         0.995503         0.802826         0.890718
 H        -3.079213         0.450446         0.315481
 H        -2.565872         0.209840         2.042535
 H        -1.095228         2.296596         1.653508
 H        -2.209420         3.736028         0.151553
 H        -2.610960         3.694649        -2.026970
 H        -2.867698         1.588591        -3.426030
 H        -1.041869         1.705179        -3.021722
 H        -0.896443        -1.084446        -1.091208
 H        -0.120250         0.454024        -1.704221
