19
Iteration:  4804
 O         0.151438        -0.007012         0.960474
 C        -0.948909         0.532397         0.329581
 C        -2.297206         0.542967         0.989189
 C        -1.604729         1.859376         0.752308
 C        -1.984553         2.855231        -0.301672
 C        -2.145656         2.803923        -1.613702
 C        -2.181567         1.587649        -2.448769
 O        -2.084841         0.300585        -1.875485
 C        -0.789044         0.158215        -1.226443
 H         0.866097         0.669916         1.047433
 H        -3.168984         0.280901         0.373087
 H        -2.303866         0.126563         2.020919
 H        -1.121847         2.292626         1.632718
 H        -2.221384         3.815002         0.128265
 H        -2.162383         3.751029        -2.263019
 H        -3.249053         1.631305        -2.864968
 H        -1.473393         1.647539        -3.219640
 H        -0.555597        -0.894582        -1.074593
 H        -0.070687         0.817304        -1.682004
