19
Iteration:  4185
 O         0.228166         0.063641         0.997437
 C        -0.966861         0.489950         0.300487
 C        -2.242909         0.582592         1.116569
 C        -1.476216         1.829944         0.660946
 C        -2.174503         2.921916        -0.311689
 C        -2.347186         2.860908        -1.636740
 C        -1.920946         1.638580        -2.544887
 O        -2.118128         0.337200        -1.890220
 C        -0.914429        -0.093899        -1.142453
 H         0.829422         0.681936         0.679828
 H        -3.189372         0.396454         0.633887
 H        -2.227966         0.204514         2.116711
 H        -0.847132         2.235493         1.405791
 H        -2.246661         3.827568         0.328257
 H        -2.772957         3.770236        -2.075146
 H        -2.587171         1.774080        -3.399057
 H        -0.942071         1.871653        -2.922306
 H        -1.043682        -1.189487        -0.900447
 H        -0.034104         0.170443        -1.666249
