19
Iteration:  2290
 O         0.242637        -0.004616         0.909389
 C        -0.879807         0.570201         0.221349
 C        -2.203140         0.712795         1.138513
 C        -1.518292         1.948664         0.638542
 C        -2.270200         2.841115        -0.269079
 C        -2.422114         2.835024        -1.609505
 C        -1.794649         1.669555        -2.433344
 O        -2.112520         0.365512        -1.901617
 C        -1.003253        -0.217585        -1.090553
 H         1.012681        -0.006216         0.229328
 H        -3.204207         0.622377         0.477505
 H        -2.238662         0.374632         2.227390
 H        -0.871409         2.598434         1.321868
 H        -2.884281         3.608676         0.354964
 H        -2.724546         3.759213        -2.108006
 H        -2.078512         1.629419        -3.476259
 H        -0.684175         1.769116        -2.460288
 H        -1.074348        -1.280634        -0.931644
 H        -0.056155        -0.244513        -1.686434
