19
Iteration:  2814charge 0 multiplicity 1
 O         0.159779         0.012408         1.048364
 C        -0.903440         0.585385         0.308540
 C        -2.333088         0.488252         0.869122
 C        -1.591699         1.838729         0.658260
 C        -1.857772         2.943613        -0.282721
 C        -2.281897         2.868395        -1.600293
 C        -2.208965         1.498511        -2.519372
 O        -2.100172         0.320418        -1.757158
 C        -0.771668         0.123144        -1.164618
 H         1.020720         0.514755         0.807036
 H        -3.137716         0.116965         0.291695
 H        -2.365579         0.290888         1.925444
 H        -1.148017         2.217154         1.514101
 H        -1.851105         3.946948         0.203538
 H        -2.731936         3.694236        -2.153351
 H        -3.172389         1.466176        -3.125780
 H        -1.277718         1.466951        -3.155026
 H        -0.692146        -0.943367        -1.188928
 H        -0.031604         0.669103        -1.772735
