19
Iteration:  3857
 O         0.219382         0.185440         0.894662
 C        -0.953965         0.519069         0.212577
 C        -2.133383         0.585837         1.205314
 C        -1.523744         1.862592         0.688445
 C        -2.276701         2.731713        -0.251798
 C        -2.284158         2.760795        -1.626413
 C        -1.700053         1.702534        -2.452735
 O        -2.128665         0.410318        -1.999769
 C        -1.183105        -0.140255        -1.097514
 H         1.079845         0.590993         0.484292
 H        -3.083390         0.276420         0.762151
 H        -1.986098         0.117780         2.198833
 H        -0.964389         2.418509         1.437468
 H        -2.585655         3.782710         0.253232
 H        -2.633564         3.694441        -2.162069
 H        -2.000545         1.767787        -3.517296
 H        -0.637738         1.739684        -2.488815
 H        -1.676879        -1.021065        -0.675066
 H        -0.122885        -0.243318        -1.529119
