19
Iteration:  3585charge 0 multiplicity 1
 O         0.183536         0.003475         0.967604
 C        -0.971441         0.490641         0.286841
 C        -2.208657         0.434979         1.049505
 C        -1.476069         1.907946         0.638334
 C        -2.163841         2.944194        -0.309486
 C        -2.228219         2.881224        -1.663474
 C        -2.035595         1.660771        -2.453950
 O        -2.111857         0.333127        -1.821633
 C        -0.904627         0.003925        -1.114807
 H         0.899851         0.461934         0.607818
 H        -3.141350         0.417151         0.519476
 H        -2.375181         0.151025         2.102045
 H        -0.981856         2.330491         1.397998
 H        -2.429909         3.775740         0.333847
 H        -2.538614         3.642306        -2.300509
 H        -2.845845         1.709686        -3.154074
 H        -0.989111         1.835574        -2.980859
 H        -0.781674        -1.032029        -1.235851
 H         0.080244         0.354301        -1.593315
