19
Iteration:  2219charge 0 multiplicity 1
 O         0.148544         0.021731         0.951411
 C        -0.946875         0.549888         0.293931
 C        -2.209790         0.615099         1.074687
 C        -1.461953         1.923612         0.698513
 C        -2.138841         2.947799        -0.226282
 C        -2.220142         2.782978        -1.590918
 C        -2.041914         1.617274        -2.531319
 O        -2.080882         0.296174        -1.997623
 C        -0.909832        -0.064052        -1.084352
 H         0.942686         0.615799         1.162690
 H        -3.078801         0.360277         0.501792
 H        -2.210636         0.280572         2.065370
 H        -0.870101         2.247124         1.540035
 H        -2.520114         3.809898         0.325443
 H        -2.628098         3.562746        -2.336735
 H        -3.181294         1.633875        -2.968853
 H        -1.216253         1.779997        -3.367523
 H        -1.011901        -1.199415        -1.071087
 H         0.030570         0.269176        -1.502642
