19
Iteration:  1704charge 0 multiplicity 1
 O         0.139253        -0.087773         1.027958
 C        -0.922105         0.482829         0.274709
 C        -2.362348         0.645674         0.871014
 C        -1.624165         1.962094         0.784585
 C        -1.838874         3.056656        -0.231546
 C        -2.236683         2.803774        -1.587758
 C        -2.447513         1.453690        -2.340813
 O        -1.889230         0.227362        -1.984543
 C        -0.748334         0.106509        -1.203408
 H         1.002562         0.457855         0.831010
 H        -3.214565         0.789955         0.210455
 H        -2.480131         0.237270         1.844612
 H        -1.072738         2.321352         1.708769
 H        -1.663648         4.128650         0.134744
 H        -2.218273         3.659186        -2.248318
 H        -3.525467         1.287174        -2.554543
 H        -2.025248         1.613799        -3.315676
 H        -0.424654        -0.877316        -1.216573
 H        -0.029389         0.920684        -1.664587
