19
Iteration:  3659
 O         0.117706        -0.010116         1.026163
 C        -0.911691         0.528381         0.306136
 C        -2.367558         0.519591         0.914358
 C        -1.613215         1.838659         0.673629
 C        -1.841056         2.842970        -0.389624
 C        -2.134673         2.749971        -1.597520
 C        -2.383262         1.548756        -2.352856
 O        -2.007365         0.304183        -1.878334
 C        -0.716443         0.280421        -1.156151
 H         0.806975         0.690332         1.121111
 H        -3.231686         0.189600         0.354339
 H        -2.562089         0.355222         2.004092
 H        -1.414372         2.210477         1.596225
 H        -1.673735         3.814994        -0.012589
 H        -2.040855         3.678854        -2.088369
 H        -3.546166         1.435846        -2.507432
 H        -2.040059         1.761031        -3.324234
 H        -0.235102        -0.635113        -1.507001
 H        -0.024929         0.998021        -1.552116
