19
Iteration:  1326charge 0 multiplicity 1
 O         0.132795         0.032335         1.018441
 C        -0.888743         0.542700         0.293647
 C        -2.297902         0.571162         0.886931
 C        -1.593291         1.870521         0.782953
 C        -1.900075         2.866940        -0.290649
 C        -1.969931         2.794978        -1.630715
 C        -2.420690         1.528217        -2.454283
 O        -2.095074         0.191704        -1.885997
 C        -0.794558         0.247605        -1.190622
 H         0.787769         0.634230         1.295579
 H        -3.036910         0.450703         0.129133
 H        -2.341750         0.124044         1.866912
 H        -1.332432         2.275692         1.830274
 H        -1.859445         3.875987         0.216956
 H        -1.936629         3.761129        -2.114752
 H        -3.545874         1.488771        -2.388530
 H        -2.209708         1.602112        -3.515970
 H        -0.456951        -0.836351        -1.217129
 H        -0.101244         0.883564        -1.765754
