19
Iteration:   405charge 0 multiplicity 1
 O         0.165036         0.024374         0.978249
 C        -0.911306         0.532345         0.234695
 C        -2.237814         0.532278         0.898848
 C        -1.507281         1.892833         0.650183
 C        -2.087276         2.982330        -0.267257
 C        -2.379705         2.823314        -1.576073
 C        -1.997342         1.579080        -2.360563
 O        -2.088922         0.321763        -1.785205
 C        -0.874553        -0.010975        -1.194310
 H         0.960312         0.492228         0.607902
 H        -3.101110         0.198144         0.293414
 H        -2.292033         0.142391         1.935992
 H        -1.084043         2.236452         1.609293
 H        -2.430160         3.914562         0.154271
 H        -2.758905         3.684126        -2.128748
 H        -2.718551         1.575328        -3.194874
 H        -1.035081         1.771358        -2.890433
 H        -0.601746        -1.084073        -1.229077
 H        -0.031153         0.474631        -1.643074
