19
Iteration:  3433
 O         0.177467         0.156317         0.906383
 C        -1.013950         0.460004         0.203704
 C        -2.132364         0.559590         1.243756
 C        -1.538747         1.786485         0.538663
 C        -2.262211         2.829638        -0.256244
 C        -2.231537         2.945673        -1.615922
 C        -1.801379         1.692645        -2.428884
 O        -2.084107         0.379860        -1.906230
 C        -1.069955        -0.162691        -1.147004
 H         0.891355         0.647231         0.606960
 H        -3.102228         0.143406         0.917813
 H        -1.888663         0.359576         2.286982
 H        -0.963710         2.186373         1.355095
 H        -2.370602         3.721677         0.398708
 H        -2.768433         3.771299        -2.013100
 H        -2.370496         1.704995        -3.302882
 H        -0.756387         1.744358        -2.773812
 H        -1.284243        -1.239132        -1.074981
 H        -0.099025        -0.031305        -1.642032
