19
Iteration:  4056charge 0 multiplicity 1
 O         0.171248         0.063309         1.074240
 C        -0.962429         0.467151         0.307533
 C        -2.338298         0.449555         0.897874
 C        -1.704383         1.795764         0.699942
 C        -1.792077         2.904088        -0.303218
 C        -2.077637         2.806176        -1.670498
 C        -2.292971         1.555895        -2.437027
 O        -2.089333         0.335086        -1.774178
 C        -0.785987         0.229268        -1.257686
 H         0.832228         0.851918         0.986307
 H        -3.165967         0.013184         0.365444
 H        -2.273582         0.173121         1.938381
 H        -1.413007         2.143513         1.689748
 H        -1.933349         3.998952         0.031853
 H        -2.162133         3.694067        -2.218026
 H        -3.411855         1.584177        -2.596963
 H        -1.807158         1.500635        -3.440677
 H        -0.286322        -0.772933        -1.482197
 H        -0.057873         0.858368        -1.687152
