19
Iteration:  4499charge 0 multiplicity 1
 O         0.065598        -0.115053         1.018299
 C        -0.942443         0.509122         0.276483
 C        -2.272496         0.633660         1.075318
 C        -1.491083         1.931644         0.694487
 C        -2.000331         2.907639        -0.276010
 C        -2.275924         2.828158        -1.632001
 C        -2.282997         1.566493        -2.471323
 O        -1.920285         0.301754        -1.958977
 C        -0.756243         0.120466        -1.183214
 H         0.760014         0.502020         1.208578
 H        -3.182047         0.480077         0.452583
 H        -2.411023         0.349576         2.141664
 H        -0.983770         2.315907         1.565966
 H        -2.000876         3.887612         0.167011
 H        -2.691039         3.633175        -2.182932
 H        -3.313316         1.320760        -2.709475
 H        -1.567492         1.736834        -3.314945
 H        -0.548026        -1.027413        -1.317993
 H         0.059358         0.759598        -1.543518
