19
Iteration:   114charge 0 multiplicity 1
 O         0.232000         0.038416         0.844729
 C        -0.961441         0.591531         0.346013
 C        -2.287716         0.390931         1.033717
 C        -1.716964         1.816306         0.768545
 C        -1.855214         2.889606        -0.258496
 C        -2.192654         2.870230        -1.599033
 C        -2.350788         1.637352        -2.508575
 O        -1.945956         0.347286        -1.953079
 C        -0.767117         0.180610        -1.130730
 H        -0.025950        -0.482713         1.684359
 H        -3.142009        -0.142063         0.585359
 H        -2.096477        -0.016850         2.066106
 H        -1.482855         2.280297         1.736935
 H        -1.884683         3.916649         0.188417
 H        -2.464682         3.789874        -2.210195
 H        -3.392309         1.400071        -2.864089
 H        -1.727773         1.805685        -3.346872
 H        -0.690760        -0.933154        -1.118386
 H         0.110687         0.618812        -1.591523
