19
Iteration:  3388charge 0 multiplicity 1
 O         0.222067         0.072449         0.968003
 C        -0.882186         0.572484         0.319178
 C        -2.257793         0.524400         0.910881
 C        -1.551857         1.890096         0.786017
 C        -2.000610         2.853471        -0.183712
 C        -2.192177         2.774503        -1.574416
 C        -2.090610         1.609847        -2.568787
 O        -2.128833         0.293590        -1.934080
 C        -0.986773         0.030765        -1.133499
 H         0.937597         0.648147         0.809112
 H        -3.140517         0.375321         0.277885
 H        -2.433473         0.303199         2.006425
 H        -1.139331         2.379833         1.622721
 H        -2.319580         3.838257         0.281551
 H        -2.643078         3.791579        -1.929042
 H        -2.880271         1.696146        -3.274301
 H        -1.129644         1.654572        -3.136135
 H        -0.912093        -1.035563        -0.939499
 H        -0.100286         0.339077        -1.705654
