19
Iteration:  3210
 O         0.175795         0.020519         1.072161
 C        -0.922675         0.432367         0.285529
 C        -2.245387         0.469632         1.005613
 C        -1.557339         1.769317         0.669721
 C        -1.964237         2.895756        -0.331091
 C        -2.186574         2.892318        -1.698823
 C        -2.194944         1.569655        -2.500004
 O        -2.114727         0.404484        -1.781482
 C        -0.848431         0.171486        -1.203197
 H         0.836227         0.657680         0.921851
 H        -3.096784         0.297809         0.403229
 H        -2.270560         0.044570         2.007657
 H        -1.128695         2.347638         1.570753
 H        -2.263252         3.802564         0.145599
 H        -2.635054         3.796498        -2.113954
 H        -3.060425         1.472136        -3.023288
 H        -1.308276         1.483525        -3.142336
 H        -0.775365        -0.919528        -1.286553
 H        -0.053405         0.727531        -1.638031
