19
Iteration:  3684
 O        -0.010461        -0.112347         1.100632
 C        -0.868522         0.583799         0.253336
 C        -2.231114         0.498745         0.840360
 C        -1.549108         1.910585         0.809255
 C        -1.906681         3.005679        -0.309343
 C        -2.104158         2.783978        -1.622546
 C        -2.481630         1.441489        -2.481242
 O        -1.994116         0.221416        -1.874409
 C        -0.662117         0.332781        -1.174852
 H         0.749950         0.406649         1.170312
 H        -3.169816         0.526257         0.272363
 H        -2.412850         0.003096         1.795093
 H        -1.081788         2.204256         1.769383
 H        -1.702156         4.106888         0.044395
 H        -2.497143         3.748506        -2.051549
 H        -3.615096         1.314239        -2.592055
 H        -2.189046         1.616322        -3.532629
 H        -0.166220        -0.578113        -1.370567
 H        -0.014727         1.128859        -1.675980
