19
Iteration:  4153charge 0 multiplicity 1
 O         0.048513        -0.134976         1.095409
 C        -0.884957         0.587015         0.312818
 C        -2.215044         0.739218         1.072483
 C        -1.397272         1.939920         0.662733
 C        -2.052374         2.882638        -0.246115
 C        -2.433598         2.669128        -1.559332
 C        -2.071316         1.646538        -2.544271
 O        -2.038569         0.306961        -2.035802
 C        -0.831775         0.100575        -1.175594
 H         1.061012         0.085867         0.884257
 H        -3.083547         0.416822         0.521253
 H        -2.122358         0.499607         2.106055
 H        -0.954255         2.384727         1.503994
 H        -2.417372         3.779607         0.259310
 H        -3.064637         3.420514        -2.061713
 H        -2.986141         1.477140        -3.167203
 H        -1.247503         1.930714        -3.410687
 H        -0.658669        -1.045063        -0.890446
 H         0.133176         0.433300        -1.746933
