19
Iteration:  3081
 O         0.188250        -0.088792         0.930336
 C        -0.889235         0.518437         0.309397
 C        -2.130857         0.668008         1.215502
 C        -1.403257         1.914451         0.605176
 C        -2.265684         2.784350        -0.279891
 C        -2.498800         2.734845        -1.639205
 C        -1.738554         1.809801        -2.508441
 O        -2.135259         0.396012        -1.947267
 C        -1.059056        -0.065890        -1.084401
 H         0.856899         0.355414         0.258339
 H        -3.102693         0.541401         0.826761
 H        -1.938578         0.449808         2.216703
 H        -1.003391         2.700533         1.331677
 H        -2.684402         3.636717         0.112829
 H        -3.093291         3.504677        -2.115311
 H        -1.757720         1.795690        -3.662514
 H        -0.684734         1.956153        -2.365013
 H        -1.265952        -1.076706        -0.873380
 H        -0.168765        -0.231600        -1.654258
