19
Iteration:   910
 O         0.153905        -0.116092         0.968928
 C        -0.940433         0.543388         0.338706
 C        -2.301162         0.569932         0.891909
 C        -1.509192         1.928552         0.681629
 C        -1.983409         2.932328        -0.316447
 C        -2.151389         2.821763        -1.655549
 C        -2.343906         1.524452        -2.337666
 O        -2.007697         0.259483        -1.828752
 C        -0.744695         0.206236        -1.235401
 H         0.529501         0.464893         1.680276
 H        -3.129606         0.389287         0.201091
 H        -2.491183         0.399521         1.940448
 H        -1.217603         2.291225         1.652415
 H        -1.991887         3.980187         0.058876
 H        -2.521367         3.678338        -2.158744
 H        -3.436336         1.405336        -2.419120
 H        -1.891422         1.521642        -3.343450
 H        -0.307735        -0.768792        -1.332264
 H         0.001215         0.932848        -1.707105
