19
Iteration:   279charge 0 multiplicity 1
 O         0.292166        -0.085522         0.993036
 C        -0.853753         0.473000         0.325337
 C        -2.160356         0.566409         0.972554
 C        -1.406192         1.920893         0.548937
 C        -2.211952         2.908953        -0.256572
 C        -2.592119         2.817623        -1.583674
 C        -1.838396         1.762640        -2.410149
 O        -2.101929         0.411832        -1.957479
 C        -1.012351        -0.101597        -1.149506
 H         0.464809         0.609686         1.602352
 H        -2.990127         0.203893         0.352264
 H        -2.251287         0.291540         2.021087
 H        -0.964373         2.443587         1.365463
 H        -2.497078         3.785545         0.306483
 H        -3.412757         3.350193        -1.971113
 H        -2.163343         1.791176        -3.481390
 H        -0.814096         2.131002        -2.186082
 H        -1.315606        -1.155852        -1.093236
 H        -0.008719         0.069901        -1.632995
