19
Iteration:  4891
 O         0.138582         0.027595         1.012120
 C        -0.965676         0.527682         0.207394
 C        -2.265573         0.559536         0.950735
 C        -1.577566         1.898344         0.739597
 C        -2.016255         2.874000        -0.215436
 C        -2.135784         2.818366        -1.543394
 C        -2.181115         1.600195        -2.434292
 O        -2.028298         0.238407        -1.959574
 C        -0.865641         0.104992        -1.147813
 H         0.927128         0.392570         0.709687
 H        -3.204896         0.387289         0.436834
 H        -2.291491         0.246602         2.031412
 H        -1.045051         2.342398         1.568254
 H        -1.919135         3.925981         0.082235
 H        -2.503942         3.847485        -1.955113
 H        -3.248463         1.563926        -2.871028
 H        -1.571357         1.630205        -3.436935
 H        -0.615604        -0.995198        -1.200546
 H        -0.015087         0.717352        -1.660780
