19
Iteration:   148charge 0 multiplicity 1
 O         0.352278         0.213994         1.124399
 C        -0.849543         0.422137         0.276960
 C        -2.346494         0.384877         0.804049
 C        -1.559712         1.718055         0.669952
 C        -1.996744         2.859673        -0.276448
 C        -2.162616         2.849560        -1.582920
 C        -2.276858         1.638256        -2.489114
 O        -2.202695         0.431514        -1.734553
 C        -0.819963         0.131966        -1.305286
 H         0.018838        -0.248420         1.980295
 H        -3.104761         0.194302         0.033257
 H        -2.420667        -0.099864         1.811364
 H        -1.215371         2.019672         1.635274
 H        -1.880619         3.778989         0.281077
 H        -2.186411         3.839491        -2.076975
 H        -3.131407         1.610411        -3.220815
 H        -1.493205         1.705480        -3.189873
 H        -0.630505        -0.929569        -1.635869
 H        -0.016116         0.675379        -1.791216
