19
Iteration:  2160charge 0 multiplicity 1
 O         0.098223         0.050535         1.233640
 C        -0.886960         0.511616         0.287517
 C        -2.219419         0.442556         0.869414
 C        -1.453511         1.850674         0.704761
 C        -1.862054         2.855012        -0.336179
 C        -2.166284         2.854275        -1.691517
 C        -2.362574         1.573687        -2.493316
 O        -2.128046         0.334220        -1.863776
 C        -0.854961         0.174172        -1.182406
 H         0.917081         0.333947         0.870571
 H        -3.171626         0.339416         0.334427
 H        -2.135284         0.077479         1.961153
 H        -1.094838         2.367066         1.598993
 H        -2.136282         3.777287         0.208489
 H        -2.464997         3.716791        -2.191082
 H        -3.353455         1.397024        -2.950249
 H        -1.726958         1.582361        -3.520526
 H        -0.498214        -0.820813        -1.310658
 H        -0.004567         0.846343        -1.585243
