19
Iteration:  3819
 O         0.311956         0.230319         0.893780
 C        -0.952065         0.419008         0.315448
 C        -2.240610         0.494516         1.148691
 C        -1.649604         1.749872         0.649705
 C        -2.205565         2.897106        -0.327394
 C        -2.208844         2.957532        -1.680523
 C        -1.827763         1.652619        -2.420012
 O        -2.159855         0.412469        -1.868980
 C        -1.044717        -0.205143        -1.091080
 H         0.902907         0.807298         0.435154
 H        -3.127740         0.230451         0.574155
 H        -2.139876         0.223533         2.185206
 H        -0.991887         2.232865         1.409526
 H        -2.377639         3.756829         0.161515
 H        -2.454875         3.848896        -2.247519
 H        -2.351184         1.669033        -3.372237
 H        -0.749584         1.750290        -2.580714
 H        -1.258184        -1.290415        -1.147009
 H        -0.155129        -0.174817        -1.726981
