19
Iteration:  3786charge 0 multiplicity 1
 O         0.190202         0.113745         0.995732
 C        -0.931438         0.535871         0.295222
 C        -2.254949         0.510016         1.076438
 C        -1.550740         1.848919         0.752564
 C        -2.036338         2.860588        -0.296766
 C        -2.227525         2.800365        -1.624077
 C        -1.965134         1.604131        -2.542619
 O        -2.134441         0.358463        -1.925517
 C        -0.965869         0.015500        -1.139610
 H         0.928867         0.710267         0.553596
 H        -3.223331         0.264086         0.652045
 H        -2.150791         0.101550         2.092018
 H        -0.945616         2.298765         1.618899
 H        -2.398849         3.681092         0.230339
 H        -2.919934         3.522242        -2.128351
 H        -2.629391         1.735644        -3.391216
 H        -1.027739         1.570814        -3.041394
 H        -1.053660        -1.091069        -1.052025
 H        -0.103068         0.467279        -1.685686
