19
Iteration:  4847
 O         0.261661         0.116213         1.149542
 C        -0.868470         0.447065         0.329493
 C        -2.263473         0.407575         0.910992
 C        -1.682469         1.729668         0.656237
 C        -1.866556         2.761239        -0.383995
 C        -2.104253         2.894905        -1.687275
 C        -2.276205         1.660643        -2.458538
 O        -2.167450         0.392160        -1.787671
 C        -0.906371         0.177831        -1.187934
 H         0.752527         0.899540         0.991291
 H        -3.086884         0.033166         0.258948
 H        -2.379126        -0.012459         1.961516
 H        -1.414957         2.157881         1.648022
 H        -1.653373         3.706086         0.091032
 H        -2.217266         3.871275        -2.317305
 H        -3.217681         1.560875        -3.100483
 H        -1.405118         1.709723        -3.219945
 H        -0.898008        -0.899530        -1.359053
 H        -0.187285         0.809523        -1.658018
