19
Iteration:  3809
 O         0.279193         0.223399         0.900405
 C        -0.995861         0.439424         0.285987
 C        -2.226815         0.464228         1.140315
 C        -1.630710         1.817629         0.587792
 C        -2.119895         2.847159        -0.292117
 C        -2.240202         2.844365        -1.638287
 C        -1.877044         1.679618        -2.469751
 O        -2.107917         0.399755        -1.812010
 C        -1.074390        -0.133958        -1.127726
 H         0.824110         0.786998         0.436241
 H        -3.119378         0.117311         0.609473
 H        -2.373109         0.343842         2.202000
 H        -0.999743         2.312910         1.314703
 H        -2.230833         3.702100         0.207838
 H        -2.275734         3.782591        -2.125213
 H        -2.230315         1.702192        -3.460789
 H        -0.833404         1.674308        -2.607536
 H        -1.229976        -1.264812        -1.094242
 H        -0.113167         0.292122        -1.506504
