19
Iteration:  3067charge 0 multiplicity 1
 O         0.266879        -0.009279         0.911211
 C        -0.968422         0.489416         0.343633
 C        -2.160128         0.645041         1.235894
 C        -1.456374         1.893704         0.578013
 C        -2.197778         2.797662        -0.343203
 C        -2.450088         2.812519        -1.664198
 C        -1.795723         1.760516        -2.476997
 O        -2.053984         0.455131        -1.956223
 C        -1.125803        -0.125829        -1.071398
 H         1.054757         0.018200         0.406680
 H        -3.030179         0.216553         0.690277
 H        -2.191805         0.606175         2.326510
 H        -0.748526         2.293129         1.330368
 H        -2.729997         3.488761         0.310891
 H        -3.267371         3.377847        -2.032970
 H        -2.213030         1.793480        -3.393884
 H        -0.684619         1.912705        -2.486111
 H        -1.474716        -1.175028        -0.977948
 H        -0.083027        -0.016247        -1.456892
