19
Iteration:  1210
 O         0.271944         0.091115         0.933292
 C        -0.986188         0.418533         0.337893
 C        -2.266559         0.612311         1.112525
 C        -1.437829         1.888873         0.610495
 C        -2.081029         2.931784        -0.220467
 C        -2.301323         2.787886        -1.545000
 C        -1.943523         1.674134        -2.544385
 O        -2.141334         0.265586        -1.980606
 C        -1.056311        -0.097357        -1.106804
 H         0.716006         0.906222         0.943424
 H        -3.087965         0.282817         0.535237
 H        -2.315359         0.748002         2.178345
 H        -0.788081         2.416887         1.381774
 H        -2.395514         3.935485         0.238988
 H        -2.809064         3.540358        -2.056618
 H        -2.538235         1.668277        -3.450080
 H        -0.886976         1.822071        -2.860048
 H        -0.792729        -1.167488        -1.136891
 H        -0.136266         0.455664        -1.527244
