19
Iteration:  4348charge 0 multiplicity 1
 O         0.033142        -0.058470         1.055950
 C        -0.926428         0.507041         0.234594
 C        -2.198938         0.755461         0.969078
 C        -1.348376         1.911637         0.559130
 C        -2.088170         2.933806        -0.254466
 C        -2.503820         2.706052        -1.471413
 C        -2.005945         1.665653        -2.411386
 O        -1.983134         0.309876        -1.953475
 C        -0.859519        -0.016410        -1.155863
 H         0.867876         0.187027         0.582332
 H        -3.096687         0.545849         0.386200
 H        -2.286777         0.522393         2.029644
 H        -0.784799         2.325242         1.336145
 H        -2.641578         3.682203         0.508052
 H        -3.186859         3.409927        -1.833567
 H        -2.471521         1.556070        -3.382645
 H        -0.992700         1.882082        -2.828341
 H        -0.980316        -1.004422        -1.145153
 H         0.131671         0.229136        -1.703113
