19
Iteration:  2871
 O         0.066180        -0.091770         1.052477
 C        -0.978117         0.594268         0.286818
 C        -2.239531         0.561331         0.948723
 C        -1.489682         2.001866         0.793308
 C        -1.903934         2.901450        -0.326136
 C        -2.165822         2.731342        -1.614668
 C        -2.437455         1.498867        -2.418654
 O        -1.909746         0.242831        -2.003576
 C        -0.793833         0.205845        -1.177421
 H         0.442773         0.589296         1.573987
 H        -3.248104         0.425609         0.415003
 H        -2.080057         0.019229         1.928900
 H        -1.054872         2.537399         1.609028
 H        -1.971347         3.943386         0.052996
 H        -2.346572         3.720812        -2.181340
 H        -3.553178         1.530415        -2.588039
 H        -2.168230         1.735607        -3.469054
 H        -0.355864        -0.754725        -1.314161
 H         0.124099         0.803209        -1.493019
