19
Iteration:  4349
 O         0.029505        -0.055270         1.057474
 C        -0.932857         0.505481         0.239419
 C        -2.197752         0.749421         0.971633
 C        -1.345830         1.913588         0.555170
 C        -2.085777         2.928481        -0.252066
 C        -2.492076         2.709532        -1.479534
 C        -2.013715         1.670925        -2.407022
 O        -1.979489         0.306515        -1.951564
 C        -0.865609        -0.015043        -1.165664
 H         0.884044         0.225737         0.556772
 H        -3.110004         0.529445         0.375381
 H        -2.286494         0.495280         2.039133
 H        -0.786666         2.337787         1.346194
 H        -2.606349         3.689024         0.505792
 H        -3.229190         3.425111        -1.831360
 H        -2.484341         1.538767        -3.377579
 H        -0.984414         1.869907        -2.824230
 H        -0.950572        -1.038993        -1.116129
 H         0.141021         0.276159        -1.686738
