19
Iteration:  2480charge 0 multiplicity 1
 O         0.160246        -0.053257         1.058272
 C        -0.928544         0.560384         0.321613
 C        -2.299428         0.576608         0.914900
 C        -1.492366         1.934821         0.708145
 C        -1.876777         2.958796        -0.288899
 C        -2.190463         2.753062        -1.574955
 C        -2.376177         1.468912        -2.480910
 O        -2.049009         0.235898        -1.969337
 C        -0.782901         0.229823        -1.143552
 H         0.761048         0.620623         1.346047
 H        -3.198469         0.385242         0.385098
 H        -2.320876         0.165766         1.876722
 H        -1.262239         2.335703         1.666071
 H        -2.049737         3.898673         0.162456
 H        -2.442211         3.655257        -2.139060
 H        -3.436306         1.361744        -2.818680
 H        -1.811263         1.679612        -3.426223
 H        -0.390956        -0.778878        -1.205278
 H        -0.078349         0.874906        -1.523803
