19
Iteration:  4545
 O         0.029188        -0.076849         1.189996
 C        -0.903635         0.493349         0.268464
 C        -2.191248         0.727275         0.976977
 C        -1.349863         2.013587         0.710474
 C        -2.053489         2.876094        -0.254316
 C        -2.445022         2.679626        -1.513944
 C        -2.110518         1.693469        -2.508099
 O        -2.046811         0.222251        -2.043126
 C        -0.761853         0.076654        -1.247168
 H         0.899331        -0.025494         0.683013
 H        -3.096468         0.633683         0.319219
 H        -2.339751         0.380457         2.048177
 H        -0.765161         2.432094         1.571504
 H        -2.432684         3.822216         0.362875
 H        -3.168096         3.424857        -2.019495
 H        -2.923442         1.716245        -3.217274
 H        -1.053230         1.869614        -2.894540
 H        -0.701973        -1.040559        -1.268044
 H        -0.163759         0.651397        -1.896278
