19
Iteration:  2508
 O         0.093452         0.003993         0.971510
 C        -0.993222         0.507421         0.295647
 C        -2.352106         0.676962         1.054692
 C        -1.518267         1.860999         0.735199
 C        -1.835732         2.810826        -0.286694
 C        -2.218195         2.724386        -1.611954
 C        -2.340601         1.442535        -2.463020
 O        -2.039691         0.265993        -1.895910
 C        -0.671252         0.322981        -1.166737
 H         0.885315         0.398302         0.683408
 H        -3.222403         0.530709         0.405969
 H        -2.679343         0.106393         1.981425
 H        -0.987506         2.322836         1.557088
 H        -1.830992         3.851881         0.146506
 H        -2.358216         3.648668        -2.162614
 H        -3.318260         1.288633        -2.950939
 H        -1.741677         1.619673        -3.457383
 H        -0.215130        -0.654873        -1.376955
 H        -0.054731         1.324091        -1.492534
