19
Iteration:  2302
 O         0.250060        -0.002491         0.946224
 C        -0.916819         0.519187         0.231310
 C        -2.080747         0.689935         0.987889
 C        -1.509995         2.024797         0.621786
 C        -2.345499         2.906925        -0.246861
 C        -2.366830         2.796090        -1.589428
 C        -1.771229         1.700910        -2.401061
 O        -2.098304         0.293754        -1.862518
 C        -1.094315        -0.197622        -1.130136
 H         1.038473         0.074653         0.424209
 H        -3.091329         0.321584         0.441344
 H        -2.042234         0.304005         2.045035
 H        -0.915438         2.522746         1.457999
 H        -2.913958         3.782427         0.307437
 H        -2.826548         3.596590        -2.225312
 H        -2.126372         1.772082        -3.409721
 H        -0.680174         1.834546        -2.317744
 H        -1.548002        -1.151192        -0.865930
 H        -0.113283        -0.080311        -1.655409
