19
Iteration:   617
 O         0.151800         0.191271         0.901894
 C        -1.023173         0.530857         0.200521
 C        -2.277332         0.619142         1.045569
 C        -1.473872         1.849881         0.693691
 C        -2.015894         2.925347        -0.182668
 C        -2.319476         2.737147        -1.475589
 C        -2.029405         1.536834        -2.495856
 O        -2.022487         0.266586        -1.910788
 C        -0.917491         0.049644        -1.167097
 H         0.344350        -0.724615         0.592495
 H        -3.274979         0.500862         0.609079
 H        -2.115557         0.277397         2.071420
 H        -0.825958         2.237996         1.545111
 H        -2.269053         3.887867         0.379150
 H        -2.619635         3.682329        -2.038618
 H        -2.622036         1.519185        -3.446389
 H        -0.959823         1.729089        -2.940470
 H        -0.855655        -1.065763        -1.303443
 H        -0.007329         0.568748        -1.525257
