19
Iteration:  4139charge 0 multiplicity 1
 O         0.032804        -0.126835         1.130920
 C        -0.943245         0.522839         0.275905
 C        -2.237101         0.748273         1.029707
 C        -1.322980         1.967724         0.702258
 C        -2.047522         2.884742        -0.239358
 C        -2.429334         2.720489        -1.568999
 C        -2.215076         1.564016        -2.560861
 O        -1.930149         0.258404        -2.000997
 C        -0.778621         0.115499        -1.202832
 H         0.826633         0.005317         0.667311
 H        -3.211510         0.877399         0.567976
 H        -2.310171         0.316692         2.030730
 H        -0.695070         2.434108         1.512844
 H        -2.408119         3.898015         0.226823
 H        -3.147815         3.661326        -1.825192
 H        -3.003025         1.646210        -3.320621
 H        -1.222396         1.866640        -3.004168
 H        -0.622374        -0.928808        -1.355339
 H         0.025089         0.741789        -1.583069
