19
Iteration:  2351
 O         0.220880         0.169902         0.928112
 C        -1.029492         0.401943         0.322672
 C        -2.200204         0.668441         1.190121
 C        -1.426843         1.850662         0.602345
 C        -2.182566         2.796888        -0.229925
 C        -2.355518         2.791036        -1.565453
 C        -1.848296         1.650736        -2.483579
 O        -2.091108         0.398265        -2.045898
 C        -1.026341        -0.196386        -1.104540
 H         0.881748         0.892989         0.684693
 H        -3.117789         0.685122         0.732600
 H        -2.217893         0.490762         2.225982
 H        -0.781948         2.415337         1.243106
 H        -2.322496         3.599437         0.395228
 H        -2.886469         3.505656        -2.151817
 H        -2.472520         1.828428        -3.396005
 H        -0.811591         1.845875        -2.723136
 H        -1.245454        -1.270731        -1.158097
 H        -0.088199         0.271661        -1.528339
