19
Iteration:  2430charge 0 multiplicity 1
 O         0.158640         0.111757         1.106713
 C        -0.910936         0.423647         0.285671
 C        -2.321567         0.553530         0.932611
 C        -1.460866         1.823734         0.598702
 C        -1.959122         2.872795        -0.303189
 C        -2.275952         2.804758        -1.617163
 C        -2.211444         1.635662        -2.500561
 O        -2.076236         0.336271        -1.765624
 C        -0.829653         0.077523        -1.199741
 H         0.993957         0.467077         0.755572
 H        -3.024847         0.321871         0.053832
 H        -2.717370         0.265662         1.931498
 H        -0.811510         2.178634         1.479649
 H        -2.147590         3.777996         0.302891
 H        -2.857389         3.641687        -2.066686
 H        -3.214857         1.451794        -2.910021
 H        -1.424639         1.736155        -3.234591
 H        -0.461428        -0.979829        -1.309055
 H         0.166672         0.589721        -1.583958
