19
Iteration:   407charge 0 multiplicity 1
 O         0.141977         0.008529         0.981317
 C        -0.907472         0.538758         0.218092
 C        -2.232848         0.534473         0.903046
 C        -1.497223         1.909870         0.672989
 C        -2.092215         2.973929        -0.272980
 C        -2.400279         2.832630        -1.581300
 C        -2.003603         1.577153        -2.360821
 O        -2.084822         0.318591        -1.773002
 C        -0.858354         0.000881        -1.206248
 H         0.967471         0.549255         0.675150
 H        -3.057434         0.223739         0.245709
 H        -2.236681         0.100250         1.934087
 H        -1.045817         2.186254         1.589191
 H        -2.347703         3.932213         0.183905
 H        -2.745445         3.648341        -2.141136
 H        -2.670080         1.453554        -3.237109
 H        -1.007983         1.782107        -2.898372
 H        -0.669591        -1.066146        -1.234700
 H        -0.017380         0.462640        -1.692593
