19
Iteration:  4324charge 0 multiplicity 1
 O         0.115859        -0.126795         1.101955
 C        -0.890551         0.567308         0.254401
 C        -2.142245         0.744147         0.994224
 C        -1.326454         2.038633         0.654706
 C        -2.226505         2.889288        -0.259816
 C        -2.546971         2.716013        -1.540443
 C        -1.928679         1.752531        -2.447861
 O        -1.995387         0.312440        -1.998846
 C        -0.971844        -0.132639        -1.172581
 H         0.928588        -0.025641         0.448201
 H        -3.032916         0.642488         0.436121
 H        -2.213485         0.283624         1.959661
 H        -0.870752         2.628621         1.457507
 H        -2.487247         3.832563         0.315043
 H        -3.373529         3.274254        -1.846798
 H        -2.237340         1.634208        -3.471530
 H        -0.890473         1.950252        -2.708557
 H        -1.183294        -1.187710        -1.088728
 H         0.016340         0.011620        -1.715811
