19
Iteration:  1348charge 0 multiplicity 1
 O         0.250248         0.134158         1.025998
 C        -0.981485         0.505584         0.314209
 C        -2.417739         0.444914         0.896465
 C        -1.640389         1.860422         0.647056
 C        -1.792807         2.974964        -0.302712
 C        -2.003567         2.751727        -1.548239
 C        -2.359246         1.556064        -2.332698
 O        -2.080815         0.231781        -1.905083
 C        -0.875370         0.132507        -1.206741
 H         0.849861         0.958941         0.847213
 H        -3.128806         0.107576         0.154501
 H        -2.486395         0.069965         1.889574
 H        -1.299282         2.383921         1.602902
 H        -1.523750         3.959189         0.200930
 H        -2.079301         3.568661        -2.236272
 H        -3.409286         1.473353        -2.676674
 H        -1.828150         1.922497        -3.157640
 H        -0.610503        -0.960736        -1.276527
 H        -0.160555         0.858936        -1.663324
