19
Iteration:  4039charge 0 multiplicity 1
 O         0.143070         0.190923         1.033312
 C        -0.993372         0.466739         0.283851
 C        -2.306007         0.311157         0.968425
 C        -1.655304         1.760562         0.671368
 C        -1.835125         2.850768        -0.314458
 C        -2.022136         2.829497        -1.685636
 C        -2.301676         1.569345        -2.477532
 O        -2.126903         0.331745        -1.771325
 C        -0.842652         0.222101        -1.135738
 H         0.862123         0.841484         0.757083
 H        -3.152286         0.092858         0.278654
 H        -2.444138        -0.022050         2.011729
 H        -1.127699         2.206941         1.501321
 H        -1.388314         3.669110         0.103789
 H        -1.973593         3.835276        -2.237049
 H        -3.272326         1.632133        -2.957648
 H        -1.539266         1.784990        -3.251286
 H        -0.422726        -0.742726        -1.359590
 H        -0.147485         1.130504        -1.530070
