19
Iteration:  1078charge 0 multiplicity 1
 O         0.154674        -0.110534         1.025888
 C        -0.987335         0.507212         0.193995
 C        -2.032552         0.734458         1.215642
 C        -1.368615         1.992593         0.650136
 C        -2.268610         2.940280        -0.273024
 C        -2.504223         2.752329        -1.593529
 C        -1.860532         1.700993        -2.423785
 O        -2.018211         0.314787        -2.100491
 C        -1.082441        -0.122813        -1.149882
 H         1.018426         0.339265         0.936360
 H        -3.071602         0.482991         0.840274
 H        -1.851804         0.438702         2.223393
 H        -0.511775         2.570107         1.120808
 H        -2.800714         3.794268         0.281693
 H        -3.264096         3.458924        -1.942115
 H        -2.258185         1.749228        -3.426533
 H        -0.766057         1.947930        -2.403603
 H        -1.173098        -1.204210        -1.014432
 H        -0.072298         0.008547        -1.641440
