19
Iteration:  4967
 O         0.105224        -0.040522         1.232559
 C        -0.854212         0.443048         0.231478
 C        -2.182917         0.643691         1.023070
 C        -1.414173         1.851971         0.575545
 C        -2.163112         2.809341        -0.287862
 C        -2.394885         2.907719        -1.576819
 C        -2.039039         1.768250        -2.475948
 O        -2.033893         0.351671        -1.945142
 C        -0.858097        -0.050879        -1.239118
 H         1.015433         0.189647         0.782223
 H        -3.187239         0.521597         0.632306
 H        -2.103591         0.272830         2.022479
 H        -0.884904         2.458546         1.241034
 H        -2.493226         3.650936         0.347284
 H        -3.261894         3.553081        -2.066299
 H        -2.874560         1.635790        -3.135505
 H        -1.247521         1.858513        -3.125104
 H        -0.896749        -1.116724        -1.221912
 H        -0.140927         0.436603        -1.849070
