19
Iteration:   246
 O         0.018712         0.009265         0.964006
 C        -1.019911         0.480847         0.192968
 C        -2.164656         0.698368         1.161245
 C        -1.294895         1.899654         0.588698
 C        -2.195228         2.798818        -0.155647
 C        -2.435484         2.784732        -1.473221
 C        -1.965776         1.699780        -2.447385
 O        -1.968970         0.329869        -2.046550
 C        -0.872413        -0.050677        -1.229402
 H         0.739011         0.719731         1.057221
 H        -3.159618         0.605750         0.725070
 H        -1.896510         0.277249         2.126930
 H        -0.730969         2.447030         1.308021
 H        -2.590002         3.532605         0.509618
 H        -3.300742         3.303272        -1.739124
 H        -2.596552         1.752520        -3.377122
 H        -0.893005         1.971804        -2.843492
 H        -0.855383        -1.149885        -1.161997
 H         0.050873         0.290780        -1.715609
