19
Iteration:  3781charge 0 multiplicity 1
 O         0.213648         0.073865         1.031513
 C        -0.952258         0.545062         0.289581
 C        -2.223588         0.528768         1.071916
 C        -1.556229         1.898175         0.790764
 C        -2.043323         2.847449        -0.292984
 C        -2.215884         2.821226        -1.627617
 C        -2.030073         1.624162        -2.546740
 O        -2.105548         0.316263        -1.939522
 C        -0.980819         0.025858        -1.191635
 H         0.961034         0.561396         0.749943
 H        -3.192866         0.393167         0.562058
 H        -2.262377         0.048166         2.054811
 H        -0.946922         2.389921         1.553178
 H        -2.542263         3.747161         0.279368
 H        -2.877476         3.560237        -2.095801
 H        -2.732903         1.644222        -3.451210
 H        -0.997544         1.539223        -3.094621
 H        -0.895816        -1.054321        -1.081469
 H        -0.030874         0.360354        -1.641626
