19
Iteration:  3598charge 0 multiplicity 1
 O         0.140610         0.058203         1.035480
 C        -0.926059         0.515007         0.215660
 C        -2.242927         0.493673         1.014290
 C        -1.584650         1.834810         0.654361
 C        -2.044782         2.960520        -0.260131
 C        -2.188514         2.877322        -1.578414
 C        -2.086174         1.570943        -2.461377
 O        -2.104847         0.348575        -1.820380
 C        -0.873105        -0.000661        -1.234567
 H         0.995279         0.570945         0.779077
 H        -3.175058         0.191730         0.535478
 H        -1.913228         0.124310         1.993706
 H        -1.055314         2.232416         1.564308
 H        -2.402470         3.979812         0.160020
 H        -2.377745         3.813849        -2.146035
 H        -2.943372         1.474262        -3.059321
 H        -1.254476         1.500919        -3.271816
 H        -0.790435        -1.081384        -1.141639
 H        -0.119833         0.584131        -1.823786
