19
Iteration:   846
 O         0.027368        -0.036386         1.122537
 C        -0.958393         0.517518         0.215290
 C        -2.219488         0.620448         1.036648
 C        -1.319326         1.959325         0.654434
 C        -1.991873         2.934902        -0.230703
 C        -2.399762         2.823203        -1.568533
 C        -2.240424         1.556259        -2.522272
 O        -1.990878         0.236958        -1.943970
 C        -0.797812         0.065265        -1.210835
 H         0.869779         0.306471         0.874804
 H        -3.147504         0.413664         0.489488
 H        -2.159965         0.268546         2.073508
 H        -0.730655         2.383655         1.444451
 H        -2.105418         3.924521         0.201559
 H        -2.952779         3.631597        -2.037773
 H        -3.146699         1.349640        -3.005335
 H        -1.467961         1.951234        -3.260090
 H        -0.476732        -0.944205        -1.289231
 H         0.041750         0.694256        -1.609940
