19
Iteration:  2613
 O         0.213355         0.058464         0.948136
 C        -0.930147         0.513536         0.308506
 C        -2.186402         0.587557         1.129114
 C        -1.570071         1.957119         0.757985
 C        -2.053934         2.922070        -0.262033
 C        -2.240911         2.685161        -1.584849
 C        -2.012459         1.624456        -2.526482
 O        -2.101381         0.316268        -2.005870
 C        -1.024803        -0.013578        -1.156102
 H         0.918493         0.685316         0.942391
 H        -3.051956         0.297376         0.445051
 H        -2.188717         0.173178         2.222260
 H        -1.025018         2.492491         1.697267
 H        -2.489358         3.917635         0.001260
 H        -2.745973         3.591410        -2.029400
 H        -2.701863         1.534556        -3.388341
 H        -0.989678         1.758213        -2.923665
 H        -0.987236        -1.146813        -1.128729
 H        -0.120965         0.301894        -1.686570
