19
Iteration:  4828
 O         0.233054         0.062669         1.012901
 C        -0.915626         0.523016         0.396051
 C        -2.326484         0.325959         0.881288
 C        -1.623276         1.807697         0.648660
 C        -1.878606         2.894379        -0.304054
 C        -2.121723         2.797118        -1.639429
 C        -2.203821         1.571441        -2.580735
 O        -2.188164         0.422099        -1.709563
 C        -0.842908         0.182157        -1.179392
 H         0.774415         0.793635         1.150287
 H        -3.101932         0.021334         0.275818
 H        -2.451293         0.178716         1.893813
 H        -1.271983         2.146105         1.567542
 H        -1.850575         3.910009         0.180735
 H        -2.252191         3.719063        -2.227865
 H        -3.227072         1.553580        -3.056549
 H        -1.420054         1.570388        -3.284090
 H        -0.570105        -0.919216        -1.157678
 H        -0.213088         0.964994        -1.634149
