19
Iteration:  4435charge 0 multiplicity 1
 O         0.229675         0.183249         1.023193
 C        -0.972215         0.478146         0.321925
 C        -2.321899         0.390755         0.880389
 C        -1.731482         1.761335         0.642062
 C        -1.898023         2.856466        -0.293489
 C        -2.037112         2.788791        -1.631585
 C        -2.180147         1.569361        -2.419246
 O        -2.176600         0.358878        -1.750574
 C        -0.833007         0.148553        -1.193277
 H         0.887821         0.612139         0.569032
 H        -3.237148         0.087384         0.315710
 H        -2.389412         0.334444         1.983858
 H        -1.450030         2.168386         1.581472
 H        -1.539103         3.972774         0.130267
 H        -2.077543         3.643700        -2.291846
 H        -3.195074         1.809880        -2.823988
 H        -1.548092         1.648559        -3.314114
 H        -0.323748        -0.843292        -1.282222
 H        -0.109340         0.885373        -1.678291
