19
Iteration:  2760charge 0 multiplicity 1
 O         0.154340         0.129797         0.976996
 C        -0.981308         0.439605         0.336723
 C        -2.198197         0.594443         1.203607
 C        -1.523159         1.844347         0.677485
 C        -2.022339         2.832869        -0.299900
 C        -2.304849         2.735887        -1.627103
 C        -1.973347         1.711224        -2.509542
 O        -2.079302         0.361582        -2.002620
 C        -0.997226        -0.046946        -1.151504
 H         0.909114         0.680189         0.583412
 H        -3.175654         0.317274         0.952201
 H        -1.930652         0.512598         2.249583
 H        -1.025487         2.295462         1.462662
 H        -2.438792         3.686905         0.240850
 H        -2.771062         3.589669        -2.170432
 H        -2.734440         1.751874        -3.351042
 H        -0.916115         1.753478        -3.060105
 H        -0.982611        -1.132400        -1.199110
 H         0.051647         0.263480        -1.632783
