19
Iteration:   867
 O        -0.013528        -0.029744         1.073182
 C        -0.874135         0.543395         0.216209
 C        -2.251490         0.659610         0.959528
 C        -1.403415         1.919441         0.694434
 C        -1.785259         2.867207        -0.312942
 C        -2.465568         2.619607        -1.456688
 C        -2.321878         1.567401        -2.407731
 O        -1.960832         0.281441        -1.994580
 C        -0.780546         0.168159        -1.239084
 H         0.554718         0.780097         1.348752
 H        -3.181118         0.847683         0.423887
 H        -2.300841         0.348425         2.015676
 H        -1.031912         2.381861         1.600985
 H        -1.762509         3.961441        -0.083719
 H        -2.885112         3.381429        -2.080585
 H        -3.239373         1.474398        -2.884933
 H        -1.432985         1.965213        -2.996062
 H        -0.565492        -0.844429        -1.087708
 H         0.206992         0.445874        -1.737757
