19
Iteration:  2227
 O         0.183019         0.008121         1.014297
 C        -0.955987         0.559109         0.282980
 C        -2.160504         0.672913         1.099729
 C        -1.514730         1.938527         0.683980
 C        -2.137726         2.866651        -0.229783
 C        -2.214412         2.776064        -1.553439
 C        -2.058944         1.600134        -2.522738
 O        -2.053952         0.295597        -2.054170
 C        -0.991255        -0.089208        -1.145310
 H         0.881371         0.740553         1.149312
 H        -3.202873         0.489598         0.690353
 H        -1.904339         0.409600         2.135221
 H        -0.992432         2.392172         1.561224
 H        -2.640619         3.775045         0.218483
 H        -2.473832         3.745413        -1.985250
 H        -2.915345         1.776113        -3.191537
 H        -1.259123         1.883952        -3.302496
 H        -0.974480        -1.177786        -1.106789
 H         0.004812         0.127409        -1.696099
