19
Iteration:  1104charge 0 multiplicity 1
 O         0.228463         0.104074         0.877298
 C        -1.009188         0.555663         0.255503
 C        -2.217208         0.633537         1.170528
 C        -1.334068         1.960405         0.668017
 C        -2.209247         2.859398        -0.246549
 C        -2.389326         2.688208        -1.522578
 C        -1.763906         1.724377        -2.456802
 O        -2.068468         0.333658        -2.062153
 C        -1.134793        -0.177718        -1.094662
 H         0.865616         0.051124         0.185143
 H        -3.220473         0.581415         0.802970
 H        -2.191881         0.742776         2.291694
 H        -0.854455         2.477072         1.472261
 H        -2.790666         3.563205         0.294489
 H        -3.088006         3.452105        -1.872148
 H        -2.203233         1.756876        -3.455458
 H        -0.639881         1.896511        -2.496166
 H        -1.486482        -1.214619        -0.727117
 H        -0.070228        -0.314546        -1.605105
