19
Iteration:  3244
 O         0.175828         0.050188         1.147901
 C        -0.894629         0.504650         0.393264
 C        -2.274467         0.514032         0.873152
 C        -1.595292         1.800735         0.710177
 C        -1.775405         2.891171        -0.289413
 C        -2.242294         2.801146        -1.566435
 C        -2.398022         1.549076        -2.485103
 O        -2.032807         0.307239        -2.005557
 C        -0.866842         0.214321        -1.195003
 H         0.966933         0.560566         0.846523
 H        -3.129921         0.246016         0.214053
 H        -2.377787         0.193388         1.895719
 H        -1.305986         2.182088         1.770643
 H        -1.573678         3.894679         0.080059
 H        -2.340829         3.852920        -2.049241
 H        -3.297183         1.460647        -2.961069
 H        -1.796785         1.880534        -3.362926
 H        -0.752723        -0.857162        -1.141749
 H         0.069197         0.480431        -1.629338
