19
Iteration:  3973
 O         0.117312         0.015564         0.982045
 C        -0.988462         0.509370         0.233278
 C        -2.251937         0.572683         1.031305
 C        -1.519515         1.887562         0.581003
 C        -2.051680         2.934216        -0.229215
 C        -2.330708         2.776886        -1.554747
 C        -2.001559         1.639303        -2.445008
 O        -2.027590         0.352858        -1.867904
 C        -0.860660        -0.033091        -1.171684
 H         0.910028         0.595652         0.780093
 H        -3.236608         0.420229         0.560525
 H        -2.134793         0.336459         2.102085
 H        -0.897517         2.234517         1.380194
 H        -2.253799         3.807985         0.205473
 H        -2.933832         3.586187        -2.002833
 H        -2.748338         1.599272        -3.223783
 H        -1.086564         1.676892        -2.952513
 H        -0.888895        -1.115728        -1.178639
 H         0.072003         0.437553        -1.611373
