19
Iteration:  2334charge 0 multiplicity 1
 O         0.219227         0.148706         0.982978
 C        -0.969542         0.450688         0.230336
 C        -2.186462         0.649176         1.118219
 C        -1.426333         1.885094         0.584237
 C        -2.119101         2.836047        -0.288094
 C        -2.460516         2.749109        -1.571130
 C        -1.797880         1.765236        -2.440973
 O        -2.098168         0.323985        -1.931762
 C        -1.109434        -0.157316        -1.164794
 H         0.840260         0.846534         0.552696
 H        -3.236588         0.321427         0.616249
 H        -2.006235         0.326640         2.189325
 H        -0.736097         2.198724         1.435028
 H        -2.622043         3.788962         0.202686
 H        -2.962893         3.663657        -1.945694
 H        -2.007850         1.665826        -3.492961
 H        -0.693401         1.817537        -2.205708
 H        -1.381903        -1.218936        -0.970042
 H        -0.117456        -0.188851        -1.596049
