19
Iteration:  2307
 O         0.221602         0.013434         0.965113
 C        -0.884717         0.492961         0.230273
 C        -2.074630         0.649608         0.970017
 C        -1.492678         2.018921         0.600243
 C        -2.360106         2.941863        -0.251986
 C        -2.353217         2.792146        -1.580678
 C        -1.754118         1.693472        -2.350547
 O        -2.115656         0.323454        -1.902767
 C        -1.104078        -0.183092        -1.108405
 H         1.010769         0.225919         0.358314
 H        -2.909921         0.299867         0.544062
 H        -1.981106         0.357541         1.984069
 H        -0.985815         2.383752         1.451426
 H        -2.778505         3.822510         0.108923
 H        -3.055119         3.434496        -2.131900
 H        -2.214262         1.702694        -3.372876
 H        -0.645714         1.697423        -2.357137
 H        -1.553390        -1.157427        -0.777938
 H        -0.116110        -0.104630        -1.688049
