19
Iteration:  3452
 O         0.237364         0.087941         0.939942
 C        -0.978928         0.483366         0.298189
 C        -2.059847         0.569000         1.169671
 C        -1.538885         1.901906         0.644243
 C        -2.336651         2.868760        -0.234665
 C        -2.257938         2.786959        -1.600636
 C        -1.738310         1.753819        -2.474724
 O        -2.124539         0.429656        -1.954504
 C        -1.140383        -0.208274        -1.136868
 H         0.934106         0.328146         0.379856
 H        -3.120628         0.429789         0.960339
 H        -1.859266         0.305840         2.238018
 H        -0.784752         2.429648         1.125133
 H        -3.173093         3.453550         0.229293
 H        -2.628095         3.674407        -2.247635
 H        -2.085937         1.759099        -3.523838
 H        -0.670356         1.938897        -2.716930
 H        -1.452281        -1.236286        -1.247952
 H        -0.171591        -0.306317        -1.718971
