19
Iteration:  4708charge 0 multiplicity 1
 O         0.110589        -0.081009         1.025190
 C        -0.890909         0.550667         0.242165
 C        -2.165831         0.663782         0.983653
 C        -1.418756         1.884245         0.652575
 C        -2.180405         2.850193        -0.236435
 C        -2.425030         2.781593        -1.563602
 C        -1.906582         1.649032        -2.488748
 O        -2.111835         0.356732        -1.897915
 C        -0.907109         0.037962        -1.199175
 H         1.066004         0.303538         0.890886
 H        -3.111747         0.365667         0.590316
 H        -1.975180         0.353259         1.982886
 H        -0.952581         2.476067         1.421319
 H        -2.571457         3.779014         0.270948
 H        -3.108974         3.567186        -2.007084
 H        -2.473555         1.581010        -3.430709
 H        -0.805477         1.736392        -2.691596
 H        -1.098900        -1.043299        -0.825125
 H        -0.032075         0.376046        -1.701702
