19
Iteration:  4906
 O         0.137744        -0.078763         0.958283
 C        -0.963249         0.539245         0.368735
 C        -2.305516         0.666084         0.988681
 C        -1.501876         1.918690         0.766570
 C        -2.032074         3.002816        -0.188458
 C        -2.275893         2.741736        -1.512314
 C        -2.184243         1.556644        -2.525410
 O        -2.009723         0.243249        -1.969538
 C        -0.809601         0.095218        -1.235697
 H         0.935680         0.412523         0.661169
 H        -3.057824         0.539979         0.235287
 H        -2.390585         0.272857         1.945958
 H        -1.060054         2.284448         1.691116
 H        -2.172509         3.998478         0.314549
 H        -2.391078         3.535511        -2.171888
 H        -3.154842         1.530301        -3.130182
 H        -1.339709         1.877451        -3.156301
 H        -0.415966        -0.944341        -1.189518
 H         0.050120         0.526497        -1.738409
