19
Iteration:  3232
 O         0.212954         0.029338         1.150623
 C        -0.918783         0.531166         0.334745
 C        -2.307668         0.411605         0.899864
 C        -1.506281         1.851849         0.660884
 C        -1.812510         2.874933        -0.293468
 C        -2.290383         2.786890        -1.574784
 C        -2.365665         1.653409        -2.605257
 O        -2.076026         0.354380        -1.932932
 C        -0.876181         0.142450        -1.080667
 H         1.036471         0.617968         0.917803
 H        -2.949131        -0.123922         0.233649
 H        -2.404520         0.292397         1.961704
 H        -1.361253         2.278896         1.745088
 H        -1.539955         3.857404         0.010859
 H        -2.252091         3.727035        -2.163715
 H        -3.247655         1.492021        -3.066947
 H        -1.518313         1.782981        -3.261976
 H        -0.682148        -0.932785        -1.190913
 H        -0.159765         0.756848        -1.535353
