19
Iteration:  2588
 O         0.224653         0.079115         1.016489
 C        -0.955007         0.465072         0.265315
 C        -2.341632         0.568613         0.972315
 C        -1.458191         1.838790         0.585068
 C        -1.952286         2.890173        -0.291115
 C        -2.356042         2.819221        -1.568814
 C        -2.121721         1.637520        -2.481059
 O        -2.127075         0.266264        -1.838096
 C        -0.867364         0.047260        -1.115389
 H         0.774554         0.814672         1.158226
 H        -3.197008         0.303433         0.378502
 H        -2.321868         0.451869         2.013608
 H        -0.800068         2.244866         1.329928
 H        -2.232145         3.843939         0.157407
 H        -2.503600         3.822188        -1.999009
 H        -2.781548         1.456695        -3.293247
 H        -1.026202         1.761633        -2.908557
 H        -0.687917        -1.043307        -1.124779
 H         0.021447         0.530472        -1.736030
