19
Iteration:  4550
 O         0.056442        -0.072431         1.213001
 C        -0.917935         0.496305         0.253991
 C        -2.179552         0.717208         0.948280
 C        -1.352462         2.009494         0.675280
 C        -2.080581         2.914490        -0.226169
 C        -2.446978         2.684429        -1.502467
 C        -2.099741         1.678045        -2.516412
 O        -2.057194         0.262780        -2.040074
 C        -0.811658         0.032482        -1.224265
 H         0.881079        -0.046067         0.757532
 H        -3.106092         0.583052         0.442018
 H        -2.172799         0.281229         1.914102
 H        -0.739129         2.362477         1.474901
 H        -2.499244         3.774684         0.290684
 H        -3.024991         3.410360        -2.007283
 H        -2.873369         1.660912        -3.313675
 H        -1.140591         1.917800        -2.940206
 H        -0.558719        -1.028776        -1.296493
 H         0.093993         0.564281        -1.758256
