19
Iteration:  1180charge 0 multiplicity 1
 O         0.267989         0.166347         0.855950
 C        -0.930527         0.542463         0.252653
 C        -2.225233         0.498147         1.185228
 C        -1.544188         1.826424         0.663891
 C        -2.195972         2.775086        -0.306160
 C        -2.207835         2.752555        -1.660224
 C        -1.836301         1.658733        -2.545035
 O        -2.109043         0.506113        -1.809001
 C        -1.181219        -0.139566        -1.080345
 H         0.822746         1.008588         0.758308
 H        -3.132605         0.068152         0.758737
 H        -1.949511         0.363208         2.242035
 H        -0.864092         2.405129         1.259222
 H        -2.479173         3.642726         0.231985
 H        -2.477398         3.710785        -2.141469
 H        -2.320273         1.612765        -3.486062
 H        -0.733013         1.717953        -2.772849
 H        -1.487058        -1.219486        -0.841864
 H        -0.285532        -0.111182        -1.657744
