19
Iteration:  2821charge 0 multiplicity 1
 O         0.150210         0.035251         1.053804
 C        -0.897176         0.482632         0.306678
 C        -2.332151         0.496924         0.852299
 C        -1.548564         1.799297         0.665377
 C        -1.846760         2.967332        -0.321070
 C        -2.299828         2.849025        -1.616246
 C        -2.221304         1.512922        -2.484350
 O        -2.115084         0.292606        -1.772143
 C        -0.779281         0.196086        -1.132061
 H         0.869493         0.711887         0.963504
 H        -3.193993         0.298921         0.254232
 H        -2.398817         0.239990         1.899193
 H        -1.079441         2.192054         1.667743
 H        -1.644817         3.942108         0.045591
 H        -2.727537         3.644212        -2.170377
 H        -3.107667         1.470314        -3.101034
 H        -1.430686         1.726580        -3.180882
 H        -0.564983        -0.925934        -1.253453
 H        -0.000074         0.716773        -1.647367
