19
Iteration:    12
 O         0.254494         0.030803         1.021202
 C        -0.929826         0.456141         0.292765
 C        -2.332245         0.513375         0.901327
 C        -1.491387         1.822619         0.604398
 C        -2.021673         3.003829        -0.210412
 C        -2.325628         2.853203        -1.547080
 C        -2.164991         1.689673        -2.473423
 O        -2.018521         0.372479        -1.879875
 C        -0.776723         0.076236        -1.164214
 H         0.255065        -0.892374         0.935820
 H        -2.933473        -0.043822         0.222220
 H        -2.373788         0.259507         1.946556
 H        -0.971516         2.125498         1.513542
 H        -2.754820         3.638232         0.290842
 H        -3.235357         3.413284        -1.792362
 H        -3.116135         1.613786        -3.016497
 H        -1.386758         1.861326        -3.213368
 H        -0.682380        -1.015411        -1.218660
 H         0.131590         0.538628        -1.545058
