19
Iteration:  2696
 O         0.178894         0.027673         0.927730
 C        -0.902948         0.557890         0.206317
 C        -2.114565         0.671063         1.075999
 C        -1.392813         1.957670         0.624437
 C        -2.290835         2.870854        -0.238289
 C        -2.480422         2.711902        -1.585172
 C        -1.677926         1.694483        -2.430638
 O        -2.152355         0.404263        -1.945344
 C        -1.052419        -0.213712        -1.069634
 H         0.995382         0.427570         0.629159
 H        -3.073209         0.556770         0.612257
 H        -2.043051         0.285657         2.107120
 H        -0.753477         2.462107         1.290191
 H        -3.024716         3.554577         0.254216
 H        -2.998046         3.540762        -2.157217
 H        -2.111454         1.822455        -3.409632
 H        -0.668964         1.822604        -2.453643
 H        -1.423860        -1.166156        -0.741043
 H        -0.197331        -0.297263        -1.626261
