19
Iteration:  1562charge 0 multiplicity 1
 O         0.161893         0.234337         0.957946
 C        -1.022466         0.429820         0.225790
 C        -2.103184         0.419174         1.152126
 C        -1.584841         1.897654         0.639410
 C        -2.080108         2.905790        -0.228963
 C        -2.124157         2.852820        -1.620022
 C        -1.856409         1.680855        -2.492271
 O        -2.162666         0.348257        -1.893191
 C        -1.107412        -0.146058        -1.149777
 H         0.923210         0.684246         0.441782
 H        -3.091354         0.216263         0.791433
 H        -1.793391         0.408596         2.168392
 H        -0.898135         2.299400         1.424446
 H        -2.557024         3.791616         0.257470
 H        -2.675582         3.631955        -2.238651
 H        -2.758210         1.591721        -3.263620
 H        -0.946312         1.732782        -3.097158
 H        -1.359927        -1.206304        -1.026850
 H        -0.105894        -0.029113        -1.583619
