19
Iteration:  1957charge 0 multiplicity 1
 O         0.267819         0.137736         0.935367
 C        -0.970358         0.456711         0.297812
 C        -2.173209         0.629318         1.143464
 C        -1.512258         1.827770         0.585113
 C        -2.191104         2.867488        -0.200714
 C        -2.254371         2.823397        -1.544253
 C        -1.896016         1.678133        -2.536408
 O        -2.082953         0.361330        -2.013729
 C        -1.090867        -0.162996        -1.094749
 H         0.770761         0.924097         0.916312
 H        -3.135582         0.330207         0.594936
 H        -2.079540         0.454127         2.226802
 H        -0.858755         2.184829         1.390934
 H        -2.455046         3.847334         0.212556
 H        -2.811124         3.658116        -2.056835
 H        -2.555477         1.694632        -3.351296
 H        -0.894700         1.812777        -2.854698
 H        -1.599201        -1.146833        -0.907481
 H        -0.092956        -0.262770        -1.503130
