19
Iteration:  3856
 O         0.217052         0.190086         0.891886
 C        -0.944957         0.522180         0.214402
 C        -2.123819         0.584133         1.195073
 C        -1.532337         1.858353         0.686683
 C        -2.276110         2.731983        -0.244286
 C        -2.277750         2.764347        -1.631905
 C        -1.704557         1.694112        -2.446831
 O        -2.127855         0.419753        -2.001016
 C        -1.188059        -0.141816        -1.092266
 H         1.058340         0.575239         0.520718
 H        -3.064236         0.271736         0.737224
 H        -1.998256         0.134678         2.203000
 H        -0.980744         2.394544         1.407520
 H        -2.587975         3.748883         0.244701
 H        -2.611088         3.688000        -2.150541
 H        -2.007941         1.728951        -3.482970
 H        -0.656854         1.751245        -2.507418
 H        -1.690382        -1.046022        -0.666345
 H        -0.137647        -0.239680        -1.514072
