19
Iteration:  4122charge 0 multiplicity 1
 O        -0.040629        -0.064336         1.093601
 C        -0.987801         0.470410         0.250470
 C        -2.257230         0.737923         0.996717
 C        -1.327333         1.917993         0.624566
 C        -1.944223         2.892117        -0.273207
 C        -2.483070         2.727294        -1.493279
 C        -2.185029         1.587778        -2.416318
 O        -1.929190         0.242018        -1.998783
 C        -0.742320         0.189185        -1.170212
 H         0.800405         0.026988         0.752638
 H        -3.125788         0.612911         0.348187
 H        -2.304079         0.338418         2.001991
 H        -0.717844         2.324401         1.382093
 H        -2.116771         3.839431         0.140943
 H        -2.848878         3.438143        -2.091831
 H        -3.117262         1.293949        -2.928820
 H        -1.480364         1.876154        -3.171284
 H        -0.261356        -0.867093        -1.306177
 H        -0.004941         0.913914        -1.641275
