19
Iteration:  2031
 O         0.184667        -0.018604         1.071686
 C        -0.883471         0.500565         0.350514
 C        -2.230122         0.557782         1.008434
 C        -1.536170         1.837997         0.679405
 C        -2.036209         2.871340        -0.314409
 C        -2.316012         2.849929        -1.670956
 C        -2.236085         1.602935        -2.609860
 O        -2.028910         0.394573        -1.789765
 C        -0.850785         0.060751        -1.132417
 H         1.035297        -0.018765         0.521928
 H        -3.086890         0.437805         0.265565
 H        -2.484493         0.414859         2.082076
 H        -1.044830         2.323136         1.502872
 H        -1.899303         3.887189         0.005576
 H        -2.674458         3.730543        -2.122550
 H        -3.124537         1.391216        -3.260782
 H        -1.253543         1.854168        -3.271661
 H        -0.764523        -1.064779        -1.251090
 H         0.055685         0.570926        -1.476584
