19
Iteration:  1025charge 0 multiplicity 1
 O         0.252027        -0.037442         1.080017
 C        -0.946003         0.463168         0.303543
 C        -2.229919         0.663302         1.083307
 C        -1.361617         1.940509         0.670521
 C        -2.128656         2.919332        -0.254686
 C        -2.355118         2.815102        -1.552590
 C        -2.042577         1.639931        -2.551140
 O        -2.144039         0.300310        -1.993970
 C        -0.929153        -0.012533        -1.178943
 H         1.087083         0.102114         0.571159
 H        -3.068284         0.495842         0.373389
 H        -2.475907         0.289415         2.052080
 H        -1.076175         2.480640         1.626035
 H        -2.484176         3.830164         0.322981
 H        -2.938262         3.664678        -2.004900
 H        -2.758257         1.698173        -3.319798
 H        -1.031787         1.748530        -3.063323
 H        -0.823368        -1.148094        -1.193826
 H        -0.055920         0.402367        -1.753308
