19
Iteration:  4684charge 0 multiplicity 1
 O         0.220588         0.125415         0.945707
 C        -0.981763         0.506082         0.323514
 C        -2.233677         0.487695         1.163962
 C        -1.499886         1.829221         0.671824
 C        -2.143159         2.897045        -0.246911
 C        -2.279504         2.814519        -1.586872
 C        -1.916130         1.703983        -2.546517
 O        -2.098439         0.392184        -1.939918
 C        -0.971376        -0.125014        -1.168423
 H         0.934289         0.508104         0.468172
 H        -3.122537         0.291892         0.487901
 H        -2.352951         0.188659         2.241566
 H        -0.912660         2.398867         1.440426
 H        -2.418215         3.804649         0.203231
 H        -2.865475         3.645214        -2.113950
 H        -2.595319         1.684669        -3.457308
 H        -0.824001         1.856701        -2.844054
 H        -1.265253        -1.199634        -0.987956
 H        -0.041004         0.098179        -1.632756
