19
Iteration:  2909
 O         0.143448        -0.061222         1.070362
 C        -1.011509         0.442578         0.338359
 C        -2.359398         0.674416         0.825772
 C        -1.501416         1.965679         0.773623
 C        -1.812304         2.910589        -0.337375
 C        -2.281865         2.764317        -1.533444
 C        -2.378921         1.493098        -2.397067
 O        -1.958098         0.245752        -1.949663
 C        -0.727710         0.231066        -1.182533
 H         0.933025         0.419426         0.775881
 H        -3.221370         0.556322         0.211020
 H        -2.478861         0.230314         1.757482
 H        -0.953723         2.374165         1.699614
 H        -1.995666         3.937404         0.040792
 H        -2.660893         3.575519        -2.076307
 H        -3.329908         1.177320        -2.671134
 H        -1.823062         1.699394        -3.392249
 H        -0.253715        -0.809606        -1.261333
 H        -0.114640         1.016314        -1.633950
