19
Iteration:  2553charge 0 multiplicity 1
 O         0.148544        -0.037131         1.202675
 C        -0.826585         0.553895         0.290482
 C        -2.229801         0.572480         0.884904
 C        -1.522325         1.897195         0.676753
 C        -1.981244         2.924726        -0.318981
 C        -2.266322         2.836073        -1.639847
 C        -2.379610         1.609426        -2.524502
 O        -2.044334         0.297565        -1.826415
 C        -0.784840         0.037910        -1.216913
 H         0.963523         0.389606         1.015043
 H        -3.147630         0.394466         0.427127
 H        -2.308400         0.118461         1.827092
 H        -1.087191         2.210418         1.533188
 H        -2.173020         3.913248         0.056832
 H        -2.341063         3.816063        -2.055841
 H        -3.345054         1.522747        -3.005744
 H        -1.609912         1.760133        -3.439679
 H        -0.659981        -1.036175        -1.064166
 H         0.116055         0.479004        -1.903490
