19
Iteration:  3938
 O         0.139432        -0.108751         1.147877
 C        -0.924668         0.533749         0.256183
 C        -2.181176         0.718025         1.047177
 C        -1.324930         1.983710         0.518231
 C        -2.185819         2.849900        -0.199226
 C        -2.496337         2.640112        -1.494639
 C        -1.869048         1.707992        -2.494986
 O        -2.042956         0.379648        -2.091038
 C        -1.016845        -0.022105        -1.135305
 H         1.068481         0.084484         0.740965
 H        -3.117802         0.507359         0.550618
 H        -2.162041         0.671576         2.123392
 H        -0.776829         2.563875         1.287751
 H        -2.638975         3.648892         0.304523
 H        -3.261890         3.256891        -1.847390
 H        -2.473663         1.886706        -3.374795
 H        -0.892246         1.991500        -2.686469
 H        -1.066993        -1.053784        -1.041223
 H        -0.051481         0.086554        -1.714219
