19
Iteration:  3729charge 0 multiplicity 1
 O        -0.019685        -0.051830         1.111759
 C        -0.979436         0.491763         0.322779
 C        -2.321395         0.608409         0.931731
 C        -1.348332         1.911371         0.687464
 C        -1.811542         2.942305        -0.334302
 C        -2.515268         2.749969        -1.540158
 C        -2.341565         1.586469        -2.486127
 O        -1.913394         0.281337        -1.931683
 C        -0.621632         0.138301        -1.187473
 H         0.807104         0.250299         0.817791
 H        -3.158442         0.545044         0.215227
 H        -2.497986         0.127248         1.894373
 H        -0.836878         2.396620         1.646558
 H        -1.943185         3.982907         0.155127
 H        -2.908943         3.735093        -2.077631
 H        -3.383602         1.283837        -2.808833
 H        -1.791857         1.733554        -3.348552
 H        -0.104856        -0.785765        -1.319931
 H         0.203519         0.827191        -1.553615
