19
Iteration:  1924
 O         0.236146         0.048900         0.929925
 C        -0.978338         0.450416         0.302866
 C        -2.140958         0.618826         1.161684
 C        -1.476161         1.865969         0.619734
 C        -2.254702         2.836911        -0.304286
 C        -2.387143         2.763514        -1.631800
 C        -1.778841         1.685015        -2.504226
 O        -2.123768         0.415491        -1.915483
 C        -1.067214        -0.028176        -1.067484
 H         0.930034         0.148492         0.211255
 H        -3.215290         0.483115         0.762982
 H        -1.987002         0.308687         2.224204
 H        -0.766729         2.420630         1.234146
 H        -2.362861         3.835335         0.198535
 H        -3.102662         3.497640        -2.032746
 H        -2.015886         1.806607        -3.513062
 H        -0.710225         1.855333        -2.434229
 H        -1.262068        -1.148414        -1.028003
 H        -0.125851        -0.026247        -1.548949
