19
Iteration:  3848charge 0 multiplicity 1
 O         0.216372         0.193408         0.896836
 C        -0.917611         0.584124         0.262168
 C        -2.074861         0.529980         1.120466
 C        -1.605372         1.834594         0.637181
 C        -2.256090         2.762817        -0.262852
 C        -2.223537         2.797712        -1.585974
 C        -1.736549         1.649172        -2.435417
 O        -2.112246         0.447292        -1.979235
 C        -1.239094        -0.180331        -1.044467
 H         1.068266         0.673287         0.552339
 H        -2.968755         0.233502         0.574095
 H        -2.011118         0.395582         2.202614
 H        -0.914371         2.373380         1.383275
 H        -2.797408         3.669465         0.311680
 H        -2.582740         3.737647        -2.123671
 H        -2.206667         1.654490        -3.497105
 H        -0.595341         1.778898        -2.576485
 H        -1.575436        -1.200875        -0.971961
 H        -0.264351        -0.377930        -1.609236
