19
Iteration:  2375
 O         0.189160         0.030700         0.917117
 C        -1.004240         0.516446         0.285918
 C        -2.166506         0.630515         1.187909
 C        -1.546261         1.926666         0.763547
 C        -2.170147         2.846558        -0.273838
 C        -2.231597         2.826596        -1.608755
 C        -1.962888         1.638980        -2.547248
 O        -2.042759         0.287657        -2.020484
 C        -0.971097        -0.039352        -1.125798
 H         0.941196         0.544110         0.701638
 H        -3.220020         0.215271         1.065918
 H        -1.700083         0.393504         2.151417
 H        -1.120640         2.526532         1.608531
 H        -2.637394         3.701121         0.203069
 H        -2.755392         3.599383        -2.166455
 H        -2.772760         1.774180        -3.284619
 H        -1.003975         1.824498        -3.047740
 H        -1.239917        -1.079929        -0.881974
 H        -0.014507         0.166252        -1.659753
