19
Iteration:  3502
 O         0.155056         0.036219         0.840574
 C        -1.033465         0.451668         0.231015
 C        -2.138484         0.788202         1.244373
 C        -1.433329         1.957178         0.655928
 C        -2.304032         2.893878        -0.205136
 C        -2.471233         2.762626        -1.497259
 C        -1.681953         1.718132        -2.369841
 O        -1.988096         0.375906        -2.091083
 C        -1.083134        -0.294371        -1.155543
 H         0.907980         0.433252         0.289976
 H        -3.093559         0.582631         0.784081
 H        -1.968618         0.342139         2.247741
 H        -0.582279         2.569576         1.259637
 H        -2.649041         3.753433         0.399284
 H        -3.315398         3.244339        -2.055301
 H        -1.913130         1.799988        -3.502794
 H        -0.592389         1.886604        -2.324845
 H        -1.475902        -1.377982        -1.180423
 H        -0.060534        -0.234094        -1.534694
