19
Iteration:  3448charge 0 multiplicity 1
 O         0.224904         0.096402         0.945425
 C        -1.001774         0.477407         0.284708
 C        -2.087833         0.536839         1.190650
 C        -1.546066         1.884298         0.585025
 C        -2.321532         2.895718        -0.218980
 C        -2.238050         2.794115        -1.596280
 C        -1.769388         1.746082        -2.444315
 O        -2.121453         0.445040        -1.945567
 C        -1.102008        -0.211501        -1.140088
 H         0.985672         0.470168         0.372109
 H        -3.131730         0.347533         1.009846
 H        -1.779515         0.252666         2.197814
 H        -0.671795         2.533794         1.022439
 H        -3.131325         3.507245         0.151514
 H        -2.545313         3.625060        -2.269109
 H        -2.209351         1.799869        -3.552170
 H        -0.674008         1.871611        -2.745336
 H        -1.381767        -1.314152        -1.194548
 H        -0.136767        -0.307285        -1.690645
