19
Iteration:  1904
 O         0.165362        -0.028324         0.964746
 C        -0.951001         0.601522         0.197788
 C        -2.075615         0.672322         1.177120
 C        -1.474856         1.967436         0.589226
 C        -2.304501         2.857044        -0.266050
 C        -2.354387         2.797786        -1.581679
 C        -1.788957         1.682506        -2.395130
 O        -2.099246         0.340060        -1.923911
 C        -1.040365        -0.164385        -1.187156
 H         0.880376        -0.149758         0.378156
 H        -3.090003         0.426151         0.728140
 H        -1.837636         0.501000         2.233011
 H        -0.972122         2.418474         1.456980
 H        -3.028446         3.587009         0.198153
 H        -2.785238         3.710051        -2.147219
 H        -2.367031         1.710902        -3.374886
 H        -0.647326         1.898405        -2.553063
 H        -1.096201        -1.237306        -1.121017
 H        -0.056817         0.096930        -1.638203
