19
Iteration:  4897charge 0 multiplicity 1
 O         0.143084        -0.025827         0.990454
 C        -0.955727         0.534527         0.232612
 C        -2.264831         0.622699         0.959205
 C        -1.567738         1.928031         0.750467
 C        -2.048063         2.917306        -0.171988
 C        -2.198792         2.799043        -1.518855
 C        -2.159201         1.590076        -2.508885
 O        -2.029410         0.214334        -1.959096
 C        -0.820457         0.080320        -1.173801
 H         0.951865         0.431228         0.647145
 H        -3.213640         0.433745         0.374636
 H        -2.428224         0.317231         2.030126
 H        -1.010135         2.258805         1.687405
 H        -1.893660         3.964203         0.073783
 H        -2.427276         3.723352        -1.996543
 H        -3.165173         1.556523        -2.848869
 H        -1.525414         1.716445        -3.349543
 H        -0.662103        -0.974462        -1.200850
 H        -0.082155         0.802447        -1.519533
