19
Iteration:  4973
 O         0.105104        -0.006506         1.180202
 C        -0.840838         0.434982         0.246111
 C        -2.178194         0.624779         1.024348
 C        -1.420233         1.854711         0.548188
 C        -2.177718         2.841176        -0.250380
 C        -2.387127         2.909625        -1.567895
 C        -2.030799         1.741496        -2.543069
 O        -2.071896         0.353083        -1.945965
 C        -0.873967        -0.044382        -1.174080
 H         1.011084         0.088049         0.807670
 H        -3.105918         0.266158         0.506828
 H        -2.080249         0.304070         2.127111
 H        -0.956211         2.390016         1.473412
 H        -2.585182         3.659620         0.331820
 H        -3.018283         3.665671        -1.894227
 H        -2.945888         1.664319        -3.198232
 H        -1.008416         1.903946        -3.134006
 H        -0.846188        -1.180232        -1.187258
 H         0.094306         0.264962        -1.753300
