19
Iteration:  3216charge 0 multiplicity 1
 O         0.176401         0.023325         1.082834
 C        -0.923728         0.466350         0.378791
 C        -2.238875         0.389431         0.981568
 C        -1.539576         1.803957         0.680640
 C        -1.921827         2.889530        -0.399695
 C        -2.231413         2.861087        -1.672983
 C        -2.190332         1.623026        -2.496108
 O        -2.137997         0.379715        -1.810310
 C        -0.851308         0.155639        -1.198812
 H         0.928775         0.698050         0.922084
 H        -3.141603         0.330969         0.326085
 H        -2.440307         0.072864         2.014733
 H        -1.110964         2.284809         1.495575
 H        -2.054436         3.899523         0.080802
 H        -2.600101         3.821980        -2.057629
 H        -3.249859         1.552382        -3.057320
 H        -1.408635         1.720791        -3.315844
 H        -0.633853        -0.942046        -1.229933
 H         0.046734         0.756854        -1.589450
