19
Iteration:  1363
 O         0.159374         0.206493         0.993705
 C        -0.974479         0.529000         0.293870
 C        -2.306552         0.459408         0.876737
 C        -1.627180         1.739850         0.717688
 C        -1.712431         2.848873        -0.278855
 C        -2.160788         2.888307        -1.589983
 C        -2.307366         1.579538        -2.450361
 O        -2.092508         0.258643        -1.853857
 C        -0.857263         0.093723        -1.119815
 H         0.839192         0.853345         0.668784
 H        -3.151614         0.095563         0.274399
 H        -2.575977         0.287828         1.940906
 H        -1.240484         2.002510         1.689373
 H        -1.489166         3.829769         0.033478
 H        -2.150237         3.826036        -2.173891
 H        -3.396987         1.659391        -2.820055
 H        -1.658813         1.547690        -3.380608
 H        -0.688878        -0.954201        -1.042318
 H        -0.019203         0.662215        -1.590730
