19
Iteration:  2357
 O         0.228736         0.129221         0.930093
 C        -0.991954         0.481075         0.296914
 C        -2.224283         0.664514         1.274200
 C        -1.476704         1.842597         0.568955
 C        -2.166169         2.833465        -0.228678
 C        -2.295389         2.779193        -1.549308
 C        -1.883338         1.686522        -2.525817
 O        -2.069535         0.351179        -2.039667
 C        -1.039204        -0.158283        -1.132989
 H         0.821491         0.817207         0.709481
 H        -3.235878         0.559505         0.659283
 H        -2.266343         0.483338         2.389124
 H        -0.672357         2.257213         1.256950
 H        -2.676285         3.657489         0.469750
 H        -2.885920         3.588585        -2.063237
 H        -2.595853         1.658552        -3.357214
 H        -0.788892         1.763188        -2.882744
 H        -1.093454        -1.254079        -1.168648
 H        -0.043531         0.151451        -1.480898
