19
Iteration:  3146
 O         0.213047         0.124034         0.968421
 C        -0.999661         0.473577         0.347283
 C        -2.195639         0.578901         1.168155
 C        -1.508475         1.892191         0.618206
 C        -1.988360         2.910440        -0.245471
 C        -2.414633         2.698080        -1.529292
 C        -1.952713         1.709966        -2.462840
 O        -2.039178         0.346763        -2.092913
 C        -1.049407        -0.098162        -1.137300
 H         0.969479         0.387893         0.385870
 H        -3.042688         0.468085         0.571462
 H        -2.397289         0.347081         2.199802
 H        -0.912250         2.299104         1.537610
 H        -2.139335         3.801096         0.296574
 H        -3.024097         3.465482        -2.082690
 H        -2.541947         1.908034        -3.398543
 H        -0.907132         2.037982        -2.837434
 H        -1.328297        -1.131260        -0.956211
 H         0.033192        -0.176546        -1.608711
