19
Iteration:  1160
 O         0.317464         0.164893         0.924198
 C        -0.900195         0.468122         0.243312
 C        -2.071983         0.497815         1.228802
 C        -1.679998         1.855911         0.580561
 C        -2.291090         2.886470        -0.329965
 C        -2.093825         2.962355        -1.642046
 C        -1.762237         1.645937        -2.423775
 O        -2.264090         0.396865        -1.901279
 C        -1.163654        -0.205629        -1.096175
 H         1.066458         0.661873         0.425939
 H        -2.958241         0.036280         0.729336
 H        -1.756506         0.226417         2.265793
 H        -1.324678         2.447734         1.386417
 H        -2.828296         3.671290         0.120393
 H        -2.609168         3.816047        -2.206515
 H        -2.311043         1.674608        -3.418222
 H        -0.684045         1.583305        -2.735800
 H        -1.521211        -1.250624        -0.865837
 H        -0.189606        -0.260194        -1.573972
