19
Iteration:    95
 O         0.252355         0.040445         0.858006
 C        -1.019337         0.439517         0.306308
 C        -2.313060         0.594720         1.061448
 C        -1.586471         1.856073         0.795739
 C        -2.101648         2.829706        -0.166441
 C        -2.186250         2.705752        -1.541020
 C        -2.270270         1.618747        -2.467729
 O        -1.908010         0.335643        -2.030897
 C        -0.798222         0.242730        -1.200002
 H         0.053181        -0.636403         1.591668
 H        -3.261583         0.626072         0.533734
 H        -2.551333         0.245524         2.082594
 H        -0.950355         2.230330         1.563927
 H        -1.881200         3.842911         0.074002
 H        -1.962232         3.628141        -2.074437
 H        -3.338249         1.453771        -2.716724
 H        -1.808664         1.869539        -3.503146
 H        -0.373641        -0.757786        -1.515656
 H         0.060139         0.951460        -1.512253
