19
Iteration:  2458
 O         0.108776         0.002791         1.181075
 C        -0.837208         0.587019         0.251985
 C        -2.197490         0.492162         0.870042
 C        -1.544080         1.912523         0.691192
 C        -1.902192         2.931545        -0.327384
 C        -2.286669         2.825188        -1.585322
 C        -2.349007         1.645764        -2.443768
 O        -2.031580         0.232573        -1.876017
 C        -0.818111         0.064275        -1.262639
 H         0.761170         0.689236         1.548976
 H        -3.042991         0.236279         0.334167
 H        -2.332853         0.182949         1.870037
 H        -1.199052         2.333167         1.589635
 H        -1.720976         3.893525         0.062026
 H        -2.591878         3.686037        -2.180082
 H        -3.328311         1.379003        -2.879118
 H        -1.740971         1.757756        -3.412641
 H        -0.621645        -1.017236        -1.162703
 H        -0.013289         0.506200        -1.752726
