19
Iteration:  3205charge 0 multiplicity 1
 O         0.171048         0.009091         1.060597
 C        -0.926521         0.433785         0.218572
 C        -2.256683         0.532525         1.012927
 C        -1.559074         1.791887         0.659116
 C        -2.016708         2.873526        -0.281774
 C        -2.151535         2.887330        -1.681383
 C        -2.171231         1.559004        -2.509958
 O        -2.099055         0.413029        -1.742664
 C        -0.864302         0.151517        -1.182886
 H         0.905579         0.699784         0.924510
 H        -3.146361         0.165071         0.422745
 H        -2.094706         0.122325         2.019607
 H        -1.145191         2.195762         1.526201
 H        -2.365798         3.789254         0.282142
 H        -2.599793         3.734942        -2.251376
 H        -3.133860         1.468153        -3.229284
 H        -1.268369         1.454592        -3.159932
 H        -0.695984        -0.939324        -1.402797
 H        -0.069124         0.719519        -1.801312
