19
Iteration:  2261
 O         0.164747         0.105060         0.998255
 C        -1.030301         0.424272         0.323916
 C        -2.124923         0.595948         1.234299
 C        -1.443167         1.901991         0.605751
 C        -2.054151         2.876587        -0.286962
 C        -2.403293         2.708254        -1.569941
 C        -1.869465         1.695878        -2.596165
 O        -2.076556         0.397742        -2.045315
 C        -1.079500        -0.095834        -1.070698
 H         0.762044         0.534242         0.332329
 H        -3.142562         0.378952         0.944633
 H        -1.947948         0.399242         2.262586
 H        -0.809204         2.424698         1.320232
 H        -2.745990         3.619447         0.181923
 H        -2.857878         3.672488        -1.927002
 H        -2.473304         1.535033        -3.505172
 H        -0.775024         1.732121        -2.767700
 H        -1.009601        -1.205465        -1.095938
 H        -0.171209         0.498090        -1.454712
