19
Iteration:  1071
 O         0.105070        -0.118301         1.007407
 C        -0.988172         0.512035         0.236075
 C        -2.063422         0.640904         1.233458
 C        -1.329690         2.031510         0.575576
 C        -2.224409         2.944203        -0.266402
 C        -2.545996         2.749171        -1.592119
 C        -1.874602         1.728233        -2.458686
 O        -2.020185         0.338112        -2.041128
 C        -1.002185        -0.138724        -1.168123
 H         0.975933         0.421412         1.029839
 H        -3.118549         0.733724         1.115679
 H        -1.774873         0.501335         2.269767
 H        -0.599987         2.523857         1.216676
 H        -2.834090         3.707097         0.196833
 H        -3.285901         3.381431        -2.074599
 H        -2.261837         1.813669        -3.457672
 H        -0.773323         1.971210        -2.531188
 H        -1.123795        -1.267066        -0.976733
 H        -0.039669         0.001594        -1.750842
