19
Iteration:  4597charge 0 multiplicity 1
 O         0.314969         0.071203         0.982577
 C        -0.934911         0.436186         0.309602
 C        -2.263534         0.549478         1.068112
 C        -1.577898         1.836826         0.617549
 C        -2.145293         2.903950        -0.243929
 C        -2.320281         2.859368        -1.612564
 C        -1.935478         1.656211        -2.549311
 O        -2.064759         0.406668        -1.895418
 C        -1.024302        -0.073103        -1.090898
 H         0.925418         0.746398         0.751130
 H        -3.212890         0.330580         0.513369
 H        -2.332878         0.256476         2.161997
 H        -1.043395         2.219512         1.522085
 H        -2.418903         3.726803         0.337527
 H        -2.751088         3.753585        -2.143155
 H        -2.611008         1.573132        -3.429330
 H        -0.884830         1.725540        -2.913429
 H        -0.987379        -1.259173        -1.215460
 H        -0.079293         0.175084        -1.736286
