19
Iteration:   962
 O         0.343794         0.137842         1.054808
 C        -0.936777         0.447479         0.431319
 C        -2.356506         0.489437         0.948984
 C        -1.615211         1.727516         0.598318
 C        -1.803116         2.822905        -0.361411
 C        -2.033555         2.752327        -1.614814
 C        -2.295921         1.632104        -2.442742
 O        -2.227712         0.309582        -1.873901
 C        -0.928925         0.226494        -1.191466
 H         0.649199         1.042468         1.258932
 H        -3.029543         0.204291         0.136083
 H        -2.541718         0.139716         1.933087
 H        -1.250416         2.050614         1.619613
 H        -2.060082         3.843654         0.139169
 H        -2.202817         3.680065        -2.163441
 H        -3.426259         1.682535        -2.732139
 H        -1.621904         1.650268        -3.297922
 H        -0.300998        -0.709757        -1.459691
 H        -0.243420         0.989299        -1.519792
