19
Iteration:  3532
 O         0.077737         0.067260         0.978925
 C        -0.970481         0.496116         0.217891
 C        -2.071674         0.694465         1.183043
 C        -1.376224         1.919736         0.598610
 C        -2.227183         2.824703        -0.152299
 C        -2.445880         2.807298        -1.554227
 C        -1.777189         1.692731        -2.447551
 O        -2.039615         0.335224        -2.134260
 C        -1.110385        -0.158335        -1.110530
 H         0.845685         0.392536         0.587135
 H        -3.018501         0.450896         0.740657
 H        -1.822964         0.293896         2.174626
 H        -0.654976         2.380343         1.260500
 H        -2.655630         3.577260         0.593169
 H        -3.109247         3.502116        -2.006541
 H        -2.151255         1.797494        -3.398598
 H        -0.687249         1.871160        -2.457504
 H        -1.326817        -1.220465        -1.120097
 H        -0.102217         0.114805        -1.492367
