19
Iteration:  4370
 O         0.102912         0.012278         1.081040
 C        -0.977167         0.485581         0.257118
 C        -2.268990         0.566691         1.047720
 C        -1.355259         1.886523         0.670778
 C        -2.038059         2.917450        -0.273473
 C        -2.416277         2.815606        -1.555037
 C        -2.052377         1.635205        -2.498870
 O        -2.068344         0.266307        -2.000818
 C        -0.832518         0.026991        -1.143318
 H         0.929426         0.560637         0.899861
 H        -3.279034         0.664184         0.613446
 H        -2.229750         0.242327         2.089891
 H        -0.756873         2.277981         1.441773
 H        -2.288495         3.949409         0.303112
 H        -2.845744         3.696145        -1.982106
 H        -2.760278         1.604750        -3.338015
 H        -1.170114         1.840588        -3.136954
 H        -0.667323        -0.933312        -1.330382
 H        -0.015795         0.540835        -1.677800
