19
Iteration:  4105
 O         0.032210        -0.108295         1.143271
 C        -0.934940         0.562123         0.268791
 C        -2.303304         0.644303         0.916242
 C        -1.454441         1.924746         0.649302
 C        -1.893357         2.965432        -0.270940
 C        -2.329941         2.716550        -1.487559
 C        -2.356893         1.523560        -2.477476
 O        -1.927272         0.269398        -1.952630
 C        -0.719091         0.169181        -1.250944
 H         0.869128         0.244366         0.933765
 H        -3.293868         0.604280         0.433961
 H        -2.247183         0.419900         2.003421
 H        -1.018931         2.274421         1.628618
 H        -1.920936         3.987219         0.179069
 H        -2.982609         3.642720        -1.897001
 H        -3.262779         1.339056        -3.132651
 H        -1.477074         1.850184        -3.256153
 H        -0.402417        -0.842679        -1.223009
 H         0.147231         0.741184        -1.663126
