19
Iteration:  4092charge 0 multiplicity 1
 O         0.060539        -0.096692         1.134504
 C        -0.893002         0.526052         0.293215
 C        -2.242698         0.617898         0.865684
 C        -1.494716         1.944486         0.807129
 C        -1.883002         2.927912        -0.306433
 C        -2.341929         2.787780        -1.587132
 C        -2.316460         1.543037        -2.465669
 O        -1.976802         0.263266        -1.949717
 C        -0.758198         0.167442        -1.206197
 H         0.904167         0.480580         1.108746
 H        -3.036332         0.428181         0.107454
 H        -2.423858         0.062772         1.810320
 H        -1.094062         2.403566         1.703033
 H        -2.009166         3.882526         0.062414
 H        -2.572976         3.680948        -2.176662
 H        -3.399931         1.417699        -2.751996
 H        -1.748289         1.805585        -3.449000
 H        -0.579237        -0.825480        -1.244077
 H        -0.031561         0.733623        -1.704117
