19
Iteration:  4488charge 0 multiplicity 1
 O         0.162212        -0.073044         1.107260
 C        -0.947565         0.566226         0.312318
 C        -2.308666         0.612168         0.978269
 C        -1.546926         1.825347         0.687789
 C        -1.946956         2.904454        -0.297217
 C        -2.193982         2.884902        -1.611670
 C        -2.359632         1.554358        -2.494215
 O        -1.976012         0.277085        -1.963794
 C        -0.792274         0.128688        -1.179129
 H         0.832122         0.533372         1.274743
 H        -3.235577         0.234359         0.512464
 H        -2.078915         0.316132         2.019375
 H        -1.079376         2.312388         1.516955
 H        -2.116567         3.816929         0.287282
 H        -2.396298         3.805259        -2.072856
 H        -3.307122         1.551539        -3.008952
 H        -1.823371         1.766299        -3.455495
 H        -0.457452        -1.022599        -1.176645
 H         0.022877         0.619910        -1.721794
