19
Iteration:  1722
 O         0.105881        -0.065296         0.999718
 C        -0.984050         0.594919         0.283872
 C        -2.278224         0.573475         0.857318
 C        -1.560904         1.958163         0.694218
 C        -1.920268         2.986998        -0.248935
 C        -2.064633         2.787240        -1.576131
 C        -2.392282         1.543663        -2.318810
 O        -2.000561         0.129317        -1.977334
 C        -0.727294         0.188431        -1.194016
 H         0.856819         0.593044         1.239813
 H        -3.032133         0.161200         0.199642
 H        -2.468303         0.383484         1.929674
 H        -1.306963         2.271545         1.719324
 H        -1.932188         3.974388         0.228170
 H        -2.361664         3.731150        -2.193228
 H        -3.474324         1.535589        -2.175633
 H        -2.195240         1.808549        -3.399372
 H        -0.466159        -0.960470        -1.019494
 H         0.018308         0.789923        -1.639781
