19
Iteration:  4631
 O         0.242247         0.243148         0.869252
 C        -1.018105         0.569721         0.259488
 C        -2.166949         0.419408         1.109012
 C        -1.684227         1.793628         0.787090
 C        -2.126067         2.827829        -0.208733
 C        -2.063195         2.856182        -1.590046
 C        -1.847482         1.605369        -2.580055
 O        -2.157987         0.374290        -1.908887
 C        -1.137865        -0.080344        -1.142975
 H         0.796825         0.911261         0.583815
 H        -3.215551         0.225726         0.771656
 H        -1.723841        -0.057652         2.020813
 H        -1.119839         2.364173         1.586682
 H        -2.539133         3.712753         0.314316
 H        -2.347479         3.807131        -2.202605
 H        -2.457834         1.614931        -3.511577
 H        -0.854649         1.625745        -2.998163
 H        -1.106656        -1.274112        -0.805244
 H        -0.074346         0.213187        -1.509891
