19
Iteration:  2171charge 0 multiplicity 1
 O         0.161585         0.048187         1.208852
 C        -0.911500         0.507931         0.344654
 C        -2.256068         0.446901         0.905316
 C        -1.490862         1.869926         0.620683
 C        -1.873969         2.903099        -0.331273
 C        -2.240645         2.798077        -1.616867
 C        -2.281965         1.550792        -2.535366
 O        -2.146168         0.327911        -1.806950
 C        -0.862242         0.184645        -1.231404
 H         1.034620         0.269984         0.883448
 H        -3.000453         0.289543         0.088761
 H        -2.592269         0.106924         1.959084
 H        -1.025512         2.150525         1.575210
 H        -1.655421         3.940850         0.030414
 H        -2.501657         3.707121        -2.054318
 H        -3.217506         1.521162        -3.113883
 H        -1.275010         1.691413        -3.184939
 H        -0.647913        -0.837847        -1.430599
 H        -0.177652         0.922051        -1.815706
