19
Iteration:  4762
 O         0.030354        -0.017414         1.098353
 C        -0.964934         0.532012         0.247115
 C        -2.279748         0.613733         1.073905
 C        -1.350873         1.936079         0.697498
 C        -1.941462         2.880126        -0.295245
 C        -2.480029         2.713260        -1.486670
 C        -2.190653         1.679448        -2.491795
 O        -1.897816         0.304391        -2.074533
 C        -0.849357         0.010878        -1.176641
 H         0.954366         0.138183         0.651873
 H        -3.145516         0.666963         0.472211
 H        -2.303540         0.302322         2.094955
 H        -0.750645         2.428141         1.429465
 H        -2.286421         3.789379         0.233040
 H        -2.927091         3.656428        -1.882233
 H        -3.096746         1.457669        -3.114078
 H        -1.271345         2.140814        -3.134553
 H        -0.658504        -1.158376        -1.239778
 H         0.233491         0.513604        -1.486462
