19
Iteration:  1754
 O         0.163485         0.061167         1.146850
 C        -0.980802         0.448153         0.279033
 C        -2.276888         0.518094         0.913050
 C        -1.565783         1.834600         0.769611
 C        -1.820010         2.806859        -0.337191
 C        -2.182661         2.771716        -1.619938
 C        -2.379966         1.583436        -2.505766
 O        -2.142617         0.348734        -1.829934
 C        -0.711835         0.209220        -1.265587
 H         0.655334         0.893629         1.207516
 H        -3.045705         0.352136         0.171247
 H        -2.305514         0.058463         1.932808
 H        -1.076912         2.216354         1.682306
 H        -1.440909         3.764854         0.029267
 H        -2.265262         3.771973        -2.225711
 H        -3.519745         1.538203        -2.817306
 H        -1.831548         1.671071        -3.535095
 H        -0.301801        -0.928137        -1.350140
 H        -0.004986         0.950639        -1.731536
