19
Iteration:  1418charge 0 multiplicity 1
 O         0.129622        -0.119645         1.000535
 C        -0.923860         0.500292         0.260395
 C        -2.175423         0.623778         1.132658
 C        -1.449683         1.920096         0.625660
 C        -2.171295         2.918800        -0.285393
 C        -2.274656         2.884619        -1.642267
 C        -2.048690         1.604371        -2.581961
 O        -2.118962         0.331935        -1.816639
 C        -0.864084         0.010967        -1.149111
 H         0.941603         0.484594         0.800293
 H        -3.144680         0.399432         0.639120
 H        -1.883183         0.151292         2.146301
 H        -1.029694         2.448677         1.448737
 H        -2.555928         3.784858         0.175199
 H        -2.826996         3.789514        -2.079860
 H        -2.824093         1.780199        -3.423641
 H        -1.065997         1.620354        -3.014011
 H        -0.743563        -1.043578        -1.169441
 H         0.035337         0.544848        -1.558463
