19
Iteration:  4798
 O         0.143625        -0.031701         0.994981
 C        -0.933265         0.604478         0.315486
 C        -2.326472         0.544895         1.029106
 C        -1.572548         1.877921         0.719269
 C        -1.989461         2.857182        -0.253671
 C        -2.172307         2.787444        -1.580345
 C        -2.200441         1.612485        -2.474291
 O        -2.061760         0.258374        -1.923977
 C        -0.788493         0.132708        -1.206824
 H         0.928342         0.646230         0.968766
 H        -3.227715         0.319988         0.488110
 H        -2.408313         0.277307         2.056882
 H        -1.045435         2.341661         1.553883
 H        -2.252033         3.829152         0.265031
 H        -2.155194         3.620966        -2.194383
 H        -3.143842         1.634347        -2.969744
 H        -1.490543         1.832504        -3.434798
 H        -0.504644        -0.978438        -1.333416
 H        -0.030809         0.754032        -1.893254
