19
Iteration:   129charge 0 multiplicity 1
 O         0.267873         0.101111         1.010039
 C        -0.896979         0.534518         0.347992
 C        -2.182156         0.218745         0.886916
 C        -1.655358         1.798504         0.628052
 C        -1.855289         2.948176        -0.331244
 C        -2.205743         2.888806        -1.573823
 C        -2.286631         1.673565        -2.461015
 O        -2.089824         0.331252        -1.908455
 C        -0.917430         0.184641        -1.108518
 H         0.031458        -0.294755         1.878830
 H        -2.843888        -0.200711         0.144689
 H        -2.396756         0.246093         1.933462
 H        -1.465352         2.146185         1.624524
 H        -1.933634         3.884309         0.170281
 H        -2.414499         3.821565        -2.030838
 H        -3.321227         1.708644        -2.806909
 H        -1.602881         1.819035        -3.374706
 H        -0.653782        -0.905698        -1.060389
 H        -0.058606         0.815712        -1.546292
