19
Iteration:  1689
 O         0.066431        -0.039919         1.086883
 C        -0.983292         0.544902         0.302286
 C        -2.334604         0.660293         0.871239
 C        -1.448779         1.891523         0.702936
 C        -1.808035         2.875411        -0.285227
 C        -2.303140         2.717333        -1.513968
 C        -2.455971         1.541920        -2.426807
 O        -1.917438         0.254861        -1.955580
 C        -0.724166         0.250780        -1.160396
 H         0.848442         0.223759         0.615158
 H        -3.076140         0.402672         0.116886
 H        -2.538566         0.297261         1.901907
 H        -0.983683         2.252041         1.612283
 H        -1.588047         3.924957        -0.088943
 H        -2.436476         3.682923        -2.124873
 H        -3.454350         1.271115        -2.612832
 H        -1.999579         1.829922        -3.396962
 H        -0.431058        -0.869713        -1.253776
 H         0.157432         0.673910        -1.519845
