19
Iteration:  2710
 O         0.225730        -0.010690         0.908562
 C        -0.914079         0.582344         0.185427
 C        -2.146554         0.758707         1.069217
 C        -1.484670         1.995572         0.569340
 C        -2.334147         2.864674        -0.161198
 C        -2.330447         2.755981        -1.518606
 C        -1.764983         1.649635        -2.433300
 O        -2.040734         0.331155        -1.929357
 C        -1.146330        -0.181212        -1.153718
 H         0.962001         0.647072         0.908883
 H        -3.166215         0.522484         0.544565
 H        -1.969821         0.347625         2.147373
 H        -0.836178         2.502193         1.439145
 H        -2.782680         3.713127         0.452593
 H        -3.247037         3.191569        -2.016851
 H        -2.063181         1.641582        -3.463193
 H        -0.596928         1.699858        -2.503005
 H        -1.437241        -1.271456        -1.017608
 H        -0.182888        -0.307429        -1.628163
