19
Iteration:  1913charge 0 multiplicity 1
 O         0.156832         0.009586         0.929106
 C        -0.923447         0.505463         0.261817
 C        -2.087823         0.677647         1.163912
 C        -1.491015         1.957745         0.591919
 C        -2.293534         2.844341        -0.228407
 C        -2.411036         2.753981        -1.597995
 C        -1.773303         1.648836        -2.444595
 O        -2.111109         0.405637        -1.925277
 C        -1.038976        -0.080351        -1.154916
 H         0.885129        -0.149528         0.371100
 H        -3.033157         0.203322         0.713222
 H        -1.941534         0.418278         2.248287
 H        -0.796421         2.512714         1.225004
 H        -2.769044         3.704820         0.346297
 H        -2.561428         3.629859        -2.229652
 H        -2.088639         1.645570        -3.461029
 H        -0.671356         1.660582        -2.464669
 H        -1.204810        -1.182300        -1.001196
 H        -0.144522         0.145740        -1.686468
