19
Iteration:   853
 O        -0.015893        -0.022855         1.112924
 C        -0.988541         0.588452         0.185890
 C        -2.214360         0.649710         0.993481
 C        -1.373290         1.917600         0.656505
 C        -1.875763         2.924351        -0.276301
 C        -2.458426         2.707142        -1.499402
 C        -2.263074         1.544402        -2.487036
 O        -1.962466         0.272749        -1.941893
 C        -0.757845         0.089149        -1.206524
 H         0.826440         0.430834         1.164558
 H        -3.202176         0.383326         0.683628
 H        -1.921938         0.135583         1.916548
 H        -0.628088         2.285261         1.423987
 H        -1.943729         3.988461         0.215861
 H        -2.795669         3.691576        -1.886694
 H        -3.144060         1.363242        -3.213135
 H        -1.571437         1.934482        -3.254411
 H        -0.659286        -1.031383        -1.263092
 H         0.049777         0.683782        -1.697814
