19
Iteration:  2120
 O         0.152038        -0.064981         0.987911
 C        -1.001191         0.468466         0.334391
 C        -2.332081         0.630147         0.945246
 C        -1.549368         1.912653         0.755177
 C        -1.845256         3.014022        -0.321610
 C        -2.219216         2.787117        -1.618862
 C        -2.394415         1.543852        -2.403421
 O        -1.928083         0.168926        -1.986980
 C        -0.778730         0.219319        -1.123424
 H         0.780393         0.718100         1.148799
 H        -3.280650         0.400479         0.449581
 H        -2.346049         0.165616         1.975752
 H        -1.189036         2.180777         1.781311
 H        -1.727900         4.088985        -0.000749
 H        -2.126331         3.676963        -2.329559
 H        -3.544573         1.368489        -2.525482
 H        -1.994553         1.697509        -3.355425
 H        -0.412345        -0.861786        -1.165718
 H        -0.108878         0.902481        -1.582761
