19
Iteration:   164charge 0 multiplicity 1
 O         0.191833         0.261505         1.012275
 C        -0.911439         0.429332         0.185753
 C        -2.276876         0.427228         0.884751
 C        -1.561522         1.744929         0.663731
 C        -1.960494         2.710698        -0.224422
 C        -2.180700         2.818709        -1.564731
 C        -2.160742         1.653258        -2.496508
 O        -2.114271         0.469989        -1.689175
 C        -0.824667         0.115629        -1.260557
 H         0.057691        -0.565997         1.512139
 H        -3.190209         0.284345         0.325638
 H        -2.517575         0.151839         1.901402
 H        -0.929919         2.170727         1.491158
 H        -2.222516         3.687121         0.242767
 H        -2.523430         3.746593        -2.042703
 H        -3.163188         1.557868        -2.887226
 H        -1.397721         1.563336        -3.390179
 H        -0.521020        -0.935432        -1.439617
 H        -0.123660         0.768698        -1.909634
