19
Iteration:  3679charge 0 multiplicity 1
 O        -0.002805        -0.106597         1.070826
 C        -0.919125         0.576021         0.250265
 C        -2.241743         0.499885         0.854373
 C        -1.573079         1.878644         0.790437
 C        -1.905531         2.998794        -0.309358
 C        -2.091117         2.795347        -1.621420
 C        -2.494032         1.460828        -2.469080
 O        -1.970327         0.255856        -1.850298
 C        -0.676735         0.343599        -1.176877
 H         0.788013         0.561480         1.177165
 H        -3.145511         0.500057         0.267739
 H        -2.241704        -0.018230         1.824987
 H        -1.033266         2.197432         1.693557
 H        -1.688384         3.957929        -0.002209
 H        -2.367513         3.675563        -2.173814
 H        -3.571963         1.230934        -2.471706
 H        -2.046813         1.416871        -3.495091
 H        -0.093104        -0.645156        -1.231901
 H        -0.029624         1.009065        -1.709771
