19
Iteration:   698charge 0 multiplicity 1
 O         0.208576        -0.059622         0.914126
 C        -0.978195         0.472885         0.319807
 C        -2.137053         0.673815         1.214379
 C        -1.390685         1.886595         0.562706
 C        -2.248979         2.860427        -0.285164
 C        -2.419473         2.786624        -1.594656
 C        -1.829074         1.663918        -2.445310
 O        -2.153442         0.332257        -1.974096
 C        -0.981414        -0.005423        -1.185184
 H         0.654786         0.807772         1.168359
 H        -3.196272         0.663230         1.021067
 H        -1.954119         0.708946         2.308588
 H        -0.739250         2.385674         1.254762
 H        -2.621171         3.717494         0.218516
 H        -3.056908         3.445784        -2.131973
 H        -2.247073         1.860145        -3.492246
 H        -0.709449         1.780196        -2.377144
 H        -1.023568        -1.140394        -1.221582
 H         0.009628         0.252014        -1.613290
