19
Iteration:   706
 O         0.287360        -0.025831         0.847927
 C        -1.001428         0.479488         0.382005
 C        -2.182941         0.647828         1.272369
 C        -1.469169         1.953070         0.613024
 C        -2.216059         2.892328        -0.275566
 C        -2.390315         2.772058        -1.640466
 C        -1.829296         1.680330        -2.391676
 O        -2.150965         0.318905        -2.035398
 C        -1.038149        -0.085729        -1.192524
 H         0.784547         0.737728         1.211106
 H        -3.214167         0.501706         0.918167
 H        -1.973169         0.400363         2.329680
 H        -0.993598         2.463784         1.434186
 H        -2.278627         3.849989         0.179381
 H        -2.928697         3.495272        -2.265594
 H        -2.273027         1.903347        -3.444871
 H        -0.672042         1.696218        -2.559960
 H        -0.801994        -1.196324        -1.075107
 H        -0.124687         0.298025        -1.719978
