19
Iteration:  3496charge 0 multiplicity 1
 O         0.186717         0.043012         0.820131
 C        -1.056696         0.445173         0.256870
 C        -2.093544         0.726064         1.213287
 C        -1.408768         1.932022         0.678486
 C        -2.251007         2.917901        -0.218081
 C        -2.534823         2.729580        -1.524018
 C        -1.660884         1.737923        -2.407299
 O        -1.974094         0.389612        -2.061652
 C        -1.186338        -0.226563        -1.111565
 H         0.913993         0.315084         0.348091
 H        -3.078291         0.560865         0.738439
 H        -2.100120         0.469237         2.265559
 H        -0.800573         2.386706         1.332985
 H        -2.884019         3.707671         0.228343
 H        -3.240993         3.320808        -2.120265
 H        -1.781742         1.788118        -3.499937
 H        -0.539190         1.804875        -2.322513
 H        -1.296579        -1.284020        -1.062088
 H        -0.106933        -0.213567        -1.479677
