19
Iteration:  3464charge 0 multiplicity 1
 O         0.249860         0.063635         0.921106
 C        -0.919909         0.486946         0.244928
 C        -2.101379         0.654676         1.217526
 C        -1.506102         1.924528         0.700578
 C        -2.331836         2.736564        -0.250857
 C        -2.340230         2.838180        -1.614767
 C        -1.669253         1.728012        -2.499257
 O        -2.108443         0.437446        -2.008475
 C        -1.200452        -0.174330        -1.126233
 H         1.062894         0.122300         0.281391
 H        -3.016531         0.326581         0.702786
 H        -1.999801         0.408069         2.277943
 H        -1.010877         2.420652         1.464029
 H        -2.882572         3.562953         0.258922
 H        -3.039473         3.572009        -2.043514
 H        -2.060707         1.812945        -3.465486
 H        -0.577056         1.715776        -2.453846
 H        -1.539605        -1.155653        -0.859176
 H        -0.184911        -0.211881        -1.609977
