19
Iteration:  4303
 O         0.143671        -0.017625         1.006827
 C        -0.943662         0.544653         0.241290
 C        -2.156789         0.681217         1.145547
 C        -1.396224         1.898049         0.570988
 C        -2.212591         2.891092        -0.259438
 C        -2.468959         2.739883        -1.569546
 C        -1.847493         1.719241        -2.451302
 O        -2.035398         0.359511        -2.034124
 C        -1.037267        -0.126580        -1.118211
 H         1.043052         0.180661         0.649274
 H        -3.156402         0.472900         0.853287
 H        -2.013674         0.542507         2.203857
 H        -0.778363         2.351431         1.337430
 H        -2.767766         3.590923         0.508511
 H        -3.079871         3.460053        -1.994533
 H        -2.192850         1.722300        -3.495503
 H        -0.721901         1.850381        -2.670341
 H        -1.097253        -1.095642        -0.907493
 H        -0.031099         0.202290        -1.543346
