19
Iteration:  2245charge 0 multiplicity 1
 O         0.162671         0.089400         1.045556
 C        -0.982106         0.522149         0.290026
 C        -2.172110         0.636880         1.302996
 C        -1.442380         1.864211         0.719668
 C        -2.129452         2.804686        -0.266995
 C        -2.321819         2.788499        -1.626025
 C        -1.970635         1.689281        -2.577120
 O        -2.092870         0.300637        -2.096888
 C        -1.004734        -0.049037        -1.219672
 H         1.006928         0.669343         0.912088
 H        -3.187635         0.449691         0.899457
 H        -1.944878         0.311330         2.364266
 H        -0.733589         2.356178         1.420446
 H        -2.177596         3.765875         0.227960
 H        -2.845413         3.551549        -2.158702
 H        -2.614893         1.746509        -3.465694
 H        -0.926124         1.853226        -2.871778
 H        -1.208698        -1.119822        -1.097576
 H        -0.027200         0.012611        -1.665065
