19
Iteration:   871charge 0 multiplicity 1
 O         0.038413        -0.038627         1.073540
 C        -0.887215         0.544431         0.241666
 C        -2.277935         0.670715         0.934963
 C        -1.370953         1.929577         0.726180
 C        -1.799118         2.871192        -0.304528
 C        -2.449612         2.639457        -1.473168
 C        -2.319443         1.555548        -2.386197
 O        -1.962622         0.247542        -2.007877
 C        -0.786262         0.174720        -1.245101
 H         0.516781         0.701595         1.409204
 H        -3.158918         0.846411         0.260267
 H        -2.548516         0.453585         1.979161
 H        -1.125032         2.448754         1.649332
 H        -1.696039         3.878867        -0.087426
 H        -2.969848         3.445022        -2.049671
 H        -3.294594         1.460225        -2.939890
 H        -1.565027         2.067042        -3.084192
 H        -0.604175        -0.946539        -1.171799
 H         0.109937         0.579696        -1.718766
