19
Iteration:   676
 O         0.073268        -0.038947         1.024030
 C        -0.929437         0.547016         0.264042
 C        -2.109481         0.763025         1.113063
 C        -1.290134         1.927859         0.556601
 C        -2.206426         2.739141        -0.286297
 C        -2.515345         2.746557        -1.554187
 C        -1.893421         1.741077        -2.530582
 O        -2.005648         0.467558        -1.890108
 C        -0.993989        -0.182696        -1.152201
 H         0.852065         0.445214         0.773459
 H        -3.072053         0.630915         0.633499
 H        -1.962679         0.175330         2.041620
 H        -0.663458         2.455651         1.231832
 H        -2.768044         3.353611         0.346098
 H        -3.303471         3.329204        -1.950106
 H        -2.692713         1.788577        -3.338743
 H        -0.857387         1.966896        -2.860937
 H        -1.179066        -1.327264        -1.088493
 H         0.009409        -0.135536        -1.631996
