19
Iteration:  2936charge 0 multiplicity 1
 O         0.065106        -0.001849         1.220377
 C        -0.858379         0.579435         0.276010
 C        -2.262074         0.514089         0.833527
 C        -1.439577         1.908972         0.640057
 C        -1.931769         2.831975        -0.272124
 C        -2.240221         2.753002        -1.589745
 C        -2.346403         1.575850        -2.471688
 O        -2.115056         0.294485        -1.878967
 C        -0.751067         0.207066        -1.204338
 H         1.016390         0.125002         1.039452
 H        -3.279344         0.368471         0.368957
 H        -2.067075         0.161624         1.926793
 H        -1.133825         2.337164         1.569748
 H        -1.732079         3.895026         0.004345
 H        -2.490681         3.746581        -2.083387
 H        -3.363728         1.404383        -3.136042
 H        -1.657134         1.736435        -3.323099
 H        -0.309481        -0.788524        -1.260951
 H        -0.050006         0.801301        -1.874910
