19
Iteration:  4619
 O         0.251077         0.185170         0.884695
 C        -0.959265         0.562369         0.284052
 C        -2.204444         0.432136         1.114702
 C        -1.620726         1.866591         0.704718
 C        -2.126963         2.779925        -0.276992
 C        -2.102807         2.761359        -1.604423
 C        -1.860058         1.672723        -2.487206
 O        -2.231126         0.379365        -1.936994
 C        -1.052739        -0.025148        -1.082458
 H         0.950626         0.919609         0.730377
 H        -3.114806         0.035305         0.573078
 H        -2.161567         0.143798         2.215885
 H        -1.258234         2.290619         1.679373
 H        -2.537469         3.669513         0.104360
 H        -2.415868         3.766245        -2.023341
 H        -2.429812         1.847301        -3.426022
 H        -0.813401         1.601276        -2.692919
 H        -1.032919        -1.225975        -1.142162
 H        -0.201098         0.242155        -1.789604
