19
Iteration:  3528charge 0 multiplicity 1
 O         0.074779         0.063589         0.976556
 C        -0.979636         0.502396         0.170860
 C        -2.078566         0.709199         1.189259
 C        -1.369676         1.898125         0.573831
 C        -2.237190         2.835581        -0.130338
 C        -2.443736         2.801035        -1.532867
 C        -1.779665         1.712404        -2.393771
 O        -2.026574         0.307931        -2.147189
 C        -1.110657        -0.161969        -1.111523
 H         0.952517         0.440308         0.551848
 H        -3.102787         0.533582         0.791678
 H        -1.745448         0.452497         2.182270
 H        -0.719555         2.404554         1.253119
 H        -2.756672         3.496742         0.539720
 H        -3.019244         3.602350        -2.063334
 H        -2.129751         1.744780        -3.507873
 H        -0.630700         1.826648        -2.464194
 H        -1.385204        -1.207811        -1.046545
 H        -0.066752         0.118914        -1.476478
