19
Iteration:  4016
 O         0.259970         0.171376         1.077047
 C        -0.895694         0.531808         0.332589
 C        -2.293418         0.396612         0.967356
 C        -1.706495         1.780317         0.777048
 C        -1.869440         2.828577        -0.268593
 C        -2.026274         2.735789        -1.667114
 C        -2.213678         1.615644        -2.579114
 O        -2.177735         0.382273        -1.886647
 C        -0.932756         0.116349        -1.162903
 H         1.003787         0.646904         0.754048
 H        -3.142625         0.091028         0.327394
 H        -2.426598         0.131353         2.030091
 H        -1.518952         2.246818         1.720894
 H        -1.888691         3.766807         0.094267
 H        -2.153618         3.714520        -2.157417
 H        -3.238728         1.713859        -2.952499
 H        -1.563169         1.821667        -3.441458
 H        -0.752536        -0.929505        -1.216299
 H        -0.193943         0.793726        -1.766171
