19
Iteration:  2520
 O         0.120771        -0.019668         1.095439
 C        -0.992500         0.546772         0.300945
 C        -2.337104         0.530500         0.995205
 C        -1.497589         1.889095         0.746090
 C        -1.805115         2.933472        -0.330499
 C        -2.220951         2.715040        -1.605608
 C        -2.368904         1.529930        -2.553925
 O        -1.995702         0.215954        -1.866687
 C        -0.813460         0.304451        -1.197126
 H         0.936539         0.208079         0.546862
 H        -3.268938         0.445173         0.491477
 H        -2.097390         0.259488         2.013189
 H        -1.103382         2.271976         1.623904
 H        -1.985097         3.943118         0.059952
 H        -2.530628         3.602304        -2.138000
 H        -3.380297         1.414348        -2.903055
 H        -1.622943         1.683947        -3.381063
 H        -0.221545        -0.606943        -1.341791
 H        -0.115099         1.155557        -1.660871
