19
Iteration:   989
 O         0.143222         0.147769         0.955387
 C        -0.984246         0.556676         0.261252
 C        -2.277681         0.425975         0.983322
 C        -1.586901         1.874009         0.733592
 C        -1.940156         2.904694        -0.256563
 C        -2.134607         2.825924        -1.601130
 C        -2.228671         1.598920        -2.442672
 O        -2.070775         0.334515        -1.804635
 C        -0.866863        -0.006396        -1.207858
 H         0.909800         0.660372         0.607721
 H        -3.088663         0.228418         0.279025
 H        -2.196073        -0.201929         1.931213
 H        -1.101008         2.139895         1.650391
 H        -1.789165         3.937095        -0.048198
 H        -2.052410         3.723540        -2.256928
 H        -3.262894         1.483984        -2.887520
 H        -1.497443         1.702799        -3.306262
 H        -0.744987        -1.072264        -1.066012
 H         0.072759         0.446270        -1.723416
