19
Iteration:  4843
 O         0.266144         0.104028         1.129799
 C        -0.888332         0.462565         0.290656
 C        -2.287346         0.399483         0.924182
 C        -1.661554         1.719179         0.664848
 C        -1.843582         2.776243        -0.408482
 C        -2.131020         2.879901        -1.688210
 C        -2.259813         1.648650        -2.441389
 O        -2.197266         0.398053        -1.773382
 C        -0.895131         0.204095        -1.152580
 H         0.892587         0.913392         1.098742
 H        -3.039033        -0.046159         0.169905
 H        -2.483374         0.023874         1.996025
 H        -1.494633         2.172113         1.714876
 H        -1.837561         3.777463         0.046608
 H        -2.108097         3.810318        -2.224145
 H        -3.085796         1.606494        -3.079733
 H        -1.400656         1.640937        -3.265957
 H        -0.766266        -0.838568        -1.450663
 H         0.005618         0.742766        -1.742765
