19
Iteration:   511charge 0 multiplicity 1
 O         0.231429        -0.005734         0.976536
 C        -0.891557         0.584671         0.342131
 C        -2.308506         0.591118         0.924110
 C        -1.525039         1.911853         0.754172
 C        -1.994752         2.896788        -0.248065
 C        -2.146414         2.789059        -1.575977
 C        -2.279857         1.541156        -2.483438
 O        -2.081313         0.169145        -1.938277
 C        -0.829807         0.256321        -1.206219
 H         0.138608         0.072820         1.944804
 H        -3.049506         0.357887         0.176424
 H        -2.391364         0.055224         1.871802
 H        -1.243742         2.346901         1.748558
 H        -2.166745         3.885464         0.130829
 H        -2.141544         3.760584        -2.143466
 H        -3.388284         1.405283        -2.669577
 H        -1.671077         1.539070        -3.475148
 H        -0.544260        -0.833354        -1.273879
 H        -0.039720         0.858747        -1.782845
