19
Iteration:  4659
 O         0.305171         0.262369         0.899326
 C        -1.019718         0.482982         0.341161
 C        -2.222939         0.477893         1.177687
 C        -1.659324         1.764960         0.614396
 C        -2.121648         2.854150        -0.230578
 C        -2.117842         2.846056        -1.561718
 C        -1.934294         1.725945        -2.465318
 O        -2.083921         0.345793        -2.028398
 C        -1.095533        -0.199989        -1.122429
 H         0.852635         0.736544         0.331773
 H        -3.149039         0.077828         0.748480
 H        -2.092422         0.389810         2.276130
 H        -1.248076         2.377011         1.408405
 H        -2.417397         3.750042         0.290324
 H        -2.235484         3.723473        -2.121255
 H        -2.717310         1.772444        -3.267149
 H        -0.826008         1.974643        -2.879312
 H        -1.287902        -1.208751        -1.079027
 H        -0.177786         0.171541        -1.461918
