19
Iteration:  3493charge 0 multiplicity 1
 O         0.194658         0.039606         0.822505
 C        -1.048073         0.449343         0.267928
 C        -2.093014         0.687778         1.200709
 C        -1.416369         1.927572         0.656887
 C        -2.226740         2.922237        -0.212453
 C        -2.541837         2.702781        -1.553145
 C        -1.650649         1.747169        -2.408182
 O        -1.976968         0.387178        -2.050966
 C        -1.218649        -0.179571        -1.093341
 H         0.995917         0.318326         0.271878
 H        -3.072777         0.561794         0.757602
 H        -2.125595         0.524175         2.293707
 H        -0.740719         2.366143         1.488610
 H        -2.952220         3.615869         0.173504
 H        -3.244740         3.412122        -2.137660
 H        -1.819466         1.835524        -3.594905
 H        -0.529335         1.838527        -2.257021
 H        -1.312695        -1.286897        -0.972148
 H        -0.154275        -0.180016        -1.453071
