19
Iteration:     1
 O         0.216961         0.122045         0.979415
 C        -0.932919         0.495319         0.264506
 C        -2.256851         0.478601         0.969253
 C        -1.528277         1.804250         0.696843
 C        -2.057338         2.849948        -0.209862
 C        -2.299909         2.809794        -1.521815
 C        -2.120999         1.668601        -2.484562
 O        -2.036200         0.375203        -1.920985
 C        -0.851942         0.107760        -1.203473
 H         0.177541        -0.830138         1.126371
 H        -3.135793         0.273827         0.369703
 H        -2.281677         0.130302         1.996090
 H        -1.041787         2.205135         1.580817
 H        -2.268813         3.791580         0.293265
 H        -2.678225         3.715095        -1.994442
 H        -2.984991         1.632964        -3.159378
 H        -1.237496         1.858913        -3.121943
 H        -0.689043        -0.976795        -1.266618
 H         0.017760         0.598999        -1.666295
