19
Iteration:  2683
 O         0.191962         0.086342         0.970356
 C        -0.953229         0.507630         0.282256
 C        -2.105021         0.628521         1.145648
 C        -1.421023         1.934557         0.587013
 C        -2.179374         2.762213        -0.350453
 C        -2.449126         2.790789        -1.633598
 C        -1.808855         1.741947        -2.365668
 O        -2.097012         0.392618        -1.959157
 C        -1.116677        -0.145590        -1.116820
 H         0.920047         0.208244         0.309156
 H        -2.993925         0.337147         0.679558
 H        -1.985255         0.478436         2.158647
 H        -0.839814         2.379035         1.309667
 H        -2.641539         3.526625         0.261387
 H        -3.235232         3.391807        -2.042159
 H        -1.860457         1.718587        -3.458726
 H        -0.806504         1.858711        -2.162345
 H        -1.369010        -1.174874        -1.013015
 H        -0.126622        -0.102589        -1.581578
