19
Iteration:  4807charge 0 multiplicity 1
 O         0.157306         0.000336         0.956245
 C        -0.960165         0.504195         0.313541
 C        -2.288218         0.530644         0.976989
 C        -1.609170         1.851008         0.762166
 C        -1.985392         2.860331        -0.305667
 C        -2.127127         2.812109        -1.637292
 C        -2.190759         1.572798        -2.442749
 O        -2.087136         0.317962        -1.853522
 C        -0.820433         0.174392        -1.209021
 H         0.873888         0.710441         1.073360
 H        -3.076715         0.294075         0.354156
 H        -2.256213         0.113807         1.919321
 H        -1.208685         2.272668         1.636285
 H        -2.165450         3.901939         0.102618
 H        -2.232674         3.734430        -2.182837
 H        -3.219127         1.594725        -2.852026
 H        -1.393496         1.589305        -3.251013
 H        -0.529105        -0.932705        -1.060127
 H         0.042486         0.874932        -1.654613
