19
Iteration:  3053
 O         0.266124         0.080903         0.963708
 C        -0.986009         0.410101         0.293885
 C        -2.157960         0.653331         1.149435
 C        -1.466819         1.855521         0.564427
 C        -2.221314         2.892227        -0.243057
 C        -2.371520         2.817288        -1.555261
 C        -1.820112         1.714212        -2.522600
 O        -2.029367         0.412521        -1.956919
 C        -1.140247        -0.174715        -1.071849
 H         0.831886         0.252261         0.124338
 H        -3.239649         0.491108         0.895200
 H        -1.877966         0.412974         2.260862
 H        -0.950542         2.392516         1.299057
 H        -2.900623         3.674693         0.358312
 H        -2.893928         3.685138        -2.131798
 H        -2.409333         1.690964        -3.455600
 H        -0.745917         1.881588        -2.871453
 H        -1.331620        -1.329252        -1.103386
 H        -0.114435        -0.139586        -1.638609
