19
Iteration:  1814charge 0 multiplicity 1
 O         0.148944        -0.035897         1.006154
 C        -0.904623         0.581032         0.178394
 C        -2.234111         0.668674         1.006916
 C        -1.568556         1.888001         0.678140
 C        -2.146702         2.841633        -0.246130
 C        -2.146449         2.804939        -1.582902
 C        -2.149152         1.578204        -2.456869
 O        -2.053580         0.348180        -1.833929
 C        -0.864205         0.043674        -1.188862
 H         0.900542         0.402874         0.669257
 H        -3.116782         0.241272         0.492246
 H        -2.131304         0.178071         2.026961
 H        -1.041419         2.341008         1.494466
 H        -2.240056         3.816815         0.242951
 H        -2.236100         3.656546        -2.150422
 H        -3.070062         1.521000        -2.922508
 H        -1.315039         1.580692        -3.244257
 H        -0.876451        -1.084469        -0.984978
 H        -0.050663         0.395584        -1.816281
