19
Iteration:   499
 O         0.122279        -0.046894         0.916308
 C        -0.965703         0.673059         0.294732
 C        -2.231451         0.513781         0.988780
 C        -1.545037         1.959268         0.819607
 C        -1.919748         2.995418        -0.239748
 C        -2.194336         2.715905        -1.573789
 C        -2.315605         1.521383        -2.523195
 O        -1.979335         0.188582        -1.994823
 C        -0.805870         0.173245        -1.144402
 H         0.089589         0.068365         1.847109
 H        -3.144120         0.279415         0.462462
 H        -2.181756         0.141949         2.006096
 H        -0.985657         2.371117         1.725139
 H        -1.978190         4.028821         0.126825
 H        -2.647649         3.576436        -2.193894
 H        -3.401946         1.641654        -2.895971
 H        -1.775383         1.825455        -3.526965
 H        -0.286340        -0.795511        -0.939265
 H        -0.050669         0.881049        -1.604020
