19
Iteration:  1611charge 0 multiplicity 1
 O         0.216152         0.024194         0.916733
 C        -0.938174         0.581434         0.341729
 C        -2.372368         0.510984         0.998465
 C        -1.445713         1.905562         0.692813
 C        -1.925896         2.956525        -0.268409
 C        -2.232886         2.778378        -1.564340
 C        -2.119984         1.549774        -2.574295
 O        -2.106080         0.347834        -1.866571
 C        -0.935151         0.040683        -1.076888
 H         0.943546         0.617806         0.899468
 H        -3.102099         0.263689         0.170909
 H        -2.410674         0.144770         2.037080
 H        -1.163869         2.249879         1.658953
 H        -2.204273         3.891133         0.200349
 H        -2.855288         3.534545        -2.064679
 H        -2.940835         1.394264        -3.175499
 H        -1.299013         1.704652        -3.255683
 H        -0.929404        -1.133388        -1.152455
 H         0.031266         0.420531        -1.484655
