19
Iteration:  1681
 O         0.008998        -0.014321         1.112751
 C        -0.909634         0.549825         0.335240
 C        -2.349293         0.633863         0.891326
 C        -1.371871         1.863852         0.674022
 C        -1.793346         2.830808        -0.311603
 C        -2.311148         2.696354        -1.556858
 C        -2.437235         1.582491        -2.443294
 O        -1.924411         0.277093        -1.955103
 C        -0.770905         0.236106        -1.162151
 H         0.836464         0.116945         0.713298
 H        -3.019244         0.332173         0.137325
 H        -2.319750         0.200529         1.854972
 H        -1.066444         2.335942         1.656789
 H        -1.663033         3.933379        -0.052390
 H        -2.733450         3.688376        -1.894947
 H        -3.482117         1.419270        -2.647304
 H        -1.983738         1.725050        -3.395906
 H        -0.424913        -0.785195        -1.157256
 H         0.011467         1.022037        -1.628511
