19
Iteration:  3385charge 0 multiplicity 1
 O         0.196685         0.062458         0.970624
 C        -0.904572         0.580546         0.311212
 C        -2.228215         0.544817         0.905060
 C        -1.551833         1.889055         0.777391
 C        -2.000993         2.847652        -0.211221
 C        -2.190050         2.779899        -1.570242
 C        -2.114141         1.616153        -2.539543
 O        -2.134694         0.283627        -1.931745
 C        -0.944182         0.033313        -1.120550
 H         1.018714         0.657704         0.829207
 H        -3.115328         0.363961         0.301571
 H        -2.433638         0.305252         1.953418
 H        -1.172691         2.335600         1.711873
 H        -2.364265         3.763666         0.268912
 H        -2.540759         3.801671        -1.838791
 H        -2.892472         1.745448        -3.348168
 H        -1.196459         1.658344        -3.164922
 H        -0.848981        -1.065064        -0.987654
 H        -0.052762         0.313310        -1.748687
