19
Iteration:  2976
 O         0.283575        -0.014097         0.998226
 C        -0.986917         0.476630         0.317239
 C        -2.306403         0.550374         0.960490
 C        -1.515298         1.827624         0.629578
 C        -2.032213         2.834497        -0.337004
 C        -2.244618         2.832786        -1.661916
 C        -2.166400         1.632160        -2.508030
 O        -2.102509         0.370687        -1.809092
 C        -0.835491         0.098405        -1.073821
 H         0.729104         0.867112         0.914873
 H        -3.218262         0.127862         0.495914
 H        -2.220372         0.429681         2.052223
 H        -1.151198         2.264883         1.525450
 H        -2.194467         3.845595         0.209039
 H        -2.408576         3.816306        -2.180565
 H        -3.053481         1.607015        -2.996315
 H        -1.290228         1.701165        -3.198511
 H        -0.881646        -1.018236        -0.987560
 H         0.027741         0.535976        -1.554911
