19
Iteration:  1572
 O         0.194040         0.263504         1.010367
 C        -1.012550         0.521339         0.213032
 C        -2.179424         0.454315         1.171346
 C        -1.546705         1.810725         0.608779
 C        -2.057549         2.945821        -0.240741
 C        -2.138190         2.853398        -1.536885
 C        -1.938061         1.606090        -2.500850
 O        -2.163246         0.333521        -1.941913
 C        -1.083958        -0.195922        -1.204451
 H         0.919864         0.732331         0.521341
 H        -3.213425         0.258209         0.897023
 H        -2.055094         0.285158         2.231206
 H        -0.919518         2.191078         1.431025
 H        -2.288179         3.905479         0.272487
 H        -2.485910         3.823307        -2.054877
 H        -2.705311         1.865793        -3.362608
 H        -0.908580         1.554104        -2.968275
 H        -0.983677        -1.212590        -1.096274
 H        -0.196080         0.016971        -1.864729
