19
Iteration:  3767
 O         0.164640        -0.048396         1.095837
 C        -0.892844         0.561235         0.311514
 C        -2.199617         0.632773         1.035447
 C        -1.483639         1.950772         0.710147
 C        -2.168328         2.872003        -0.241307
 C        -2.258065         2.772927        -1.560053
 C        -2.124413         1.624295        -2.571788
 O        -2.071928         0.265298        -2.008785
 C        -0.870695         0.028073        -1.173189
 H         0.986324         0.525010         0.936388
 H        -3.003871         0.425559         0.322940
 H        -2.266261         0.315345         2.068149
 H        -1.092749         2.368509         1.558582
 H        -2.380130         3.855529         0.116446
 H        -2.364818         3.697268        -2.031580
 H        -3.035511         1.610509        -3.117506
 H        -1.247922         1.940985        -3.242037
 H        -0.868020        -1.113730        -1.119492
 H        -0.055288         0.510391        -1.787226
