19
Iteration:  1767
 O         0.191001         0.060462         1.158015
 C        -0.849335         0.437825         0.358013
 C        -2.300839         0.466787         0.941467
 C        -1.594014         1.766671         0.627654
 C        -1.737252         2.811530        -0.356380
 C        -2.279157         2.815998        -1.617820
 C        -2.357865         1.607668        -2.529860
 O        -2.190332         0.337052        -1.848580
 C        -0.790437         0.242970        -1.180969
 H         0.958380         0.710163         1.054714
 H        -3.166116         0.166255         0.384351
 H        -2.519497         0.444484         1.969237
 H        -1.242456         2.241825         1.592647
 H        -1.473632         3.837506         0.000791
 H        -2.193095         3.850357        -2.100174
 H        -3.269463         1.516502        -3.137236
 H        -1.441915         1.732708        -3.226620
 H        -0.360325        -0.791335        -1.576535
 H        -0.216081         1.046978        -1.585016
