19
Iteration:  2258charge 0 multiplicity 1
 O         0.155714         0.110917         1.007037
 C        -1.017392         0.445002         0.330836
 C        -2.120899         0.598226         1.252000
 C        -1.438748         1.883899         0.628542
 C        -2.055880         2.869329        -0.289654
 C        -2.409059         2.726309        -1.580554
 C        -1.879958         1.677284        -2.604134
 O        -2.088183         0.393545        -2.069078
 C        -1.060105        -0.106894        -1.088620
 H         0.780425         0.555651         0.458514
 H        -3.223782         0.399740         0.923538
 H        -1.929932         0.344531         2.336658
 H        -0.749425         2.387508         1.374038
 H        -2.710696         3.694894         0.167094
 H        -2.809069         3.659018        -1.903664
 H        -2.458999         1.625612        -3.489689
 H        -0.828051         1.769828        -2.833026
 H        -1.015554        -1.169177        -1.096953
 H        -0.168884         0.461020        -1.505420
