19
Iteration:  3342charge 0 multiplicity 1
 O         0.043178        -0.089172         1.188560
 C        -0.912666         0.416532         0.291792
 C        -2.263978         0.586442         0.929844
 C        -1.435815         1.846586         0.646301
 C        -1.875329         2.920483        -0.339644
 C        -2.334352         2.825843        -1.595119
 C        -2.382418         1.578562        -2.494161
 O        -2.017410         0.327172        -1.872291
 C        -0.679407         0.223498        -1.217022
 H         0.900418         0.278707         0.873909
 H        -3.091707         0.264314         0.246175
 H        -2.242149         0.241879         1.981053
 H        -1.067242         2.397330         1.574794
 H        -2.036776         3.895935         0.182319
 H        -2.769869         3.742185        -2.176482
 H        -3.418728         1.483235        -2.914311
 H        -1.774074         1.793055        -3.401645
 H        -0.185303        -0.762227        -1.376220
 H         0.065713         0.991936        -1.482252
