19
Iteration:  2552
 O         0.146354        -0.039574         1.204618
 C        -0.824475         0.562567         0.294832
 C        -2.220451         0.578271         0.890570
 C        -1.527317         1.890088         0.670076
 C        -1.978721         2.924363        -0.320152
 C        -2.263473         2.831946        -1.638894
 C        -2.389149         1.609935        -2.523610
 O        -2.044955         0.293605        -1.832948
 C        -0.785679         0.042342        -1.214648
 H         0.969452         0.356330         1.009834
 H        -3.148225         0.400681         0.393701
 H        -2.305028         0.087724         1.853648
 H        -1.107337         2.232565         1.552895
 H        -2.176703         3.920607         0.075206
 H        -2.308214         3.806261        -2.077530
 H        -3.364968         1.539478        -3.030471
 H        -1.597819         1.781341        -3.423511
 H        -0.632590        -1.037534        -1.080065
 H         0.105957         0.489140        -1.885292
