19
Iteration:  4898charge 0 multiplicity 1
 O         0.145026        -0.031774         0.985269
 C        -0.956736         0.536147         0.248525
 C        -2.264840         0.632272         0.958941
 C        -1.563546         1.927621         0.751332
 C        -2.049919         2.928529        -0.170017
 C        -2.207661         2.790276        -1.514183
 C        -2.162294         1.586580        -2.517154
 O        -2.028718         0.214463        -1.958866
 C        -0.817867         0.076640        -1.182075
 H         0.917470         0.414858         0.656162
 H        -3.218862         0.442941         0.345875
 H        -2.434608         0.307207         2.065175
 H        -1.003269         2.251983         1.709525
 H        -1.910984         3.958658         0.095039
 H        -2.422541         3.736350        -2.042202
 H        -3.146077         1.556852        -2.854775
 H        -1.491504         1.745132        -3.343769
 H        -0.640234        -0.969695        -1.196892
 H        -0.051175         0.805311        -1.536542
