19
Iteration:   132
 O         0.296323         0.117539         1.044567
 C        -0.896516         0.514544         0.343627
 C        -2.205260         0.216368         0.860014
 C        -1.620871         1.795572         0.615845
 C        -1.893000         2.931838        -0.310942
 C        -2.198862         2.885034        -1.580238
 C        -2.276577         1.669223        -2.455039
 O        -2.117230         0.353037        -1.893220
 C        -0.911084         0.173135        -1.141093
 H         0.043825        -0.283012         1.940413
 H        -2.871849        -0.213036         0.113592
 H        -2.468163         0.230181         1.899079
 H        -1.421924         2.175628         1.651135
 H        -1.828817         3.972551         0.143536
 H        -2.411024         3.814660        -2.122375
 H        -3.312573         1.702229        -2.781599
 H        -1.534045         1.791699        -3.340542
 H        -0.689040        -0.873775        -1.088803
 H        -0.151349         0.846462        -1.602188
