19
Iteration:   216charge 0 multiplicity 1
 O         0.226565        -0.050099         0.928707
 C        -0.971129         0.532530         0.368257
 C        -2.262800         0.662214         1.172091
 C        -1.500573         1.962499         0.809467
 C        -2.107632         2.858785        -0.191964
 C        -2.363905         2.661321        -1.505612
 C        -2.105784         1.666123        -2.539470
 O        -1.940512         0.347959        -2.163038
 C        -0.910616         0.067208        -1.178099
 H         0.763712        -0.332276         0.217446
 H        -3.191047         0.396259         0.673670
 H        -2.225487         0.292161         2.187564
 H        -1.146918         2.594033         1.684492
 H        -2.303425         3.857246         0.155014
 H        -2.834362         3.528790        -1.967697
 H        -2.757371         1.704331        -3.426377
 H        -1.177452         1.989544        -2.987787
 H        -0.890409        -1.044159        -1.083070
 H         0.044733         0.238505        -1.698364
