19
Iteration:  2511
 O         0.101447        -0.003181         1.006532
 C        -1.002724         0.522929         0.280957
 C        -2.365003         0.632432         1.051269
 C        -1.510472         1.867275         0.741126
 C        -1.806465         2.852953        -0.288207
 C        -2.217951         2.721818        -1.611717
 C        -2.357872         1.473575        -2.506692
 O        -2.029989         0.246744        -1.883895
 C        -0.688197         0.322945        -1.173343
 H         0.975339         0.357337         0.611265
 H        -3.205203         0.544750         0.448279
 H        -2.496526         0.127274         1.979567
 H        -1.080928         2.341222         1.533614
 H        -1.918509         3.814031         0.163400
 H        -2.415343         3.608929        -2.201143
 H        -3.286087         1.280108        -2.968870
 H        -1.767221         1.609887        -3.353671
 H        -0.245660        -0.614759        -1.397269
 H        -0.133629         1.217155        -1.468274
