19
Iteration:  2416
 O         0.235424         0.055303         1.066779
 C        -0.968055         0.505606         0.332665
 C        -2.297491         0.545074         0.970566
 C        -1.515626         1.854169         0.655292
 C        -1.988261         2.836200        -0.325576
 C        -2.272468         2.840893        -1.608498
 C        -2.120444         1.582398        -2.494409
 O        -2.085857         0.331447        -1.852017
 C        -0.860108         0.073104        -1.142151
 H         0.948173         0.193368         0.368606
 H        -3.202200         0.482124         0.517550
 H        -2.237991         0.391315         2.001177
 H        -1.269618         2.337004         1.567847
 H        -2.301234         3.725669         0.111002
 H        -2.888789         3.674926        -1.930225
 H        -2.929024         1.567921        -3.264320
 H        -1.231740         1.622853        -3.210777
 H        -0.627420        -0.995381        -1.357482
 H        -0.194750         0.877941        -1.661640
