19
Iteration:   466
 O         0.178907        -0.075693         0.983818
 C        -1.018467         0.466965         0.304555
 C        -2.359319         0.771063         1.106145
 C        -1.378444         1.843458         0.659011
 C        -1.978211         2.851072        -0.255684
 C        -2.446607         2.741547        -1.532368
 C        -2.320471         1.639812        -2.522966
 O        -1.878467         0.262086        -2.089501
 C        -0.705198         0.106212        -1.100848
 H         0.248913         0.270120         1.857592
 H        -3.300244         0.809676         0.552163
 H        -2.416988         0.543464         2.154255
 H        -0.635530         2.290742         1.408391
 H        -2.010396         3.885752         0.177806
 H        -2.846103         3.738201        -2.001634
 H        -3.348354         1.316446        -2.915260
 H        -1.546328         1.998543        -3.331404
 H        -0.290308        -0.868962        -1.401555
 H         0.011607         0.897212        -1.488911
