19
Iteration:  4805
 O         0.152128        -0.005094         0.958127
 C        -0.952474         0.521998         0.325723
 C        -2.295026         0.539174         0.985204
 C        -1.606284         1.856902         0.757252
 C        -1.984635         2.856074        -0.304515
 C        -2.139906         2.806602        -1.621292
 C        -2.183103         1.582643        -2.446085
 O        -2.086206         0.306725        -1.868507
 C        -0.798770         0.163436        -1.222360
 H         0.883190         0.695765         1.059216
 H        -3.127359         0.287887         0.373882
 H        -2.286292         0.123931         1.977556
 H        -1.154361         2.279927         1.624737
 H        -2.207296         3.845652         0.119290
 H        -2.182291         3.751844        -2.242212
 H        -3.248695         1.621329        -2.857963
 H        -1.450674         1.624871        -3.218967
 H        -0.547252        -0.913933        -1.058091
 H        -0.027665         0.846471        -1.674505
