19
Iteration:  4188charge 0 multiplicity 1
 O         0.238596         0.084674         0.991914
 C        -0.970917         0.487232         0.296126
 C        -2.250550         0.582644         1.122048
 C        -1.501855         1.817994         0.634853
 C        -2.159188         2.916633        -0.322428
 C        -2.343784         2.872417        -1.598033
 C        -1.899012         1.635464        -2.533371
 O        -2.123171         0.339991        -1.875789
 C        -0.940398        -0.107946        -1.141920
 H         0.857616         0.793849         0.581173
 H        -3.181821         0.353840         0.588206
 H        -2.254218         0.229915         2.174810
 H        -0.867863         2.268787         1.393129
 H        -2.303890         3.737943         0.267584
 H        -2.681471         3.737390        -2.076531
 H        -2.611358         1.783390        -3.347872
 H        -0.795232         1.833430        -2.948456
 H        -1.049279        -1.278732        -1.009702
 H         0.010259         0.209406        -1.741706
