19
Iteration:  2626charge 0 multiplicity 1
 O         0.176974         0.050059         0.931866
 C        -0.988795         0.655509         0.286263
 C        -2.166646         0.561342         1.122575
 C        -1.525951         1.924037         0.720159
 C        -2.141733         2.852244        -0.210635
 C        -2.231915         2.751939        -1.577878
 C        -1.945905         1.622035        -2.589253
 O        -2.070801         0.296309        -2.017426
 C        -1.009403        -0.027824        -1.077926
 H         0.947574         0.560069         0.511874
 H        -3.174063         0.205343         0.806951
 H        -1.937647         0.366202         2.210402
 H        -0.761982         2.376742         1.483322
 H        -2.649857         3.662048         0.310028
 H        -2.584051         3.608833        -2.129643
 H        -2.817697         1.834736        -3.271592
 H        -1.086725         1.742978        -3.152556
 H        -1.255547        -1.057196        -0.783051
 H        -0.070035         0.005476        -1.477928
