19
Iteration:  1200
 O         0.304044         0.144698         0.875767
 C        -1.003376         0.421335         0.372825
 C        -2.264420         0.628919         1.165791
 C        -1.495606         1.817858         0.660120
 C        -2.051598         2.836158        -0.304396
 C        -2.308264         2.821186        -1.639048
 C        -1.882970         1.717626        -2.550240
 O        -2.177568         0.319415        -1.924620
 C        -1.015668        -0.105507        -1.103520
 H         0.728643         0.978452         0.882094
 H        -3.197706         0.535629         0.667466
 H        -2.339300         0.431204         2.243292
 H        -0.980392         2.220991         1.568231
 H        -2.387666         3.684333         0.341538
 H        -2.955644         3.579567        -1.988043
 H        -2.471080         1.851067        -3.416538
 H        -0.835541         1.611116        -2.827604
 H        -1.093147        -1.228689        -1.070929
 H        -0.042790         0.176121        -1.619107
