19
Iteration:  2506charge 0 multiplicity 1
 O         0.087589         0.003408         0.959118
 C        -0.988582         0.500095         0.305237
 C        -2.346255         0.692135         1.052754
 C        -1.521244         1.856346         0.732927
 C        -1.857141         2.796599        -0.292089
 C        -2.216883         2.721277        -1.608243
 C        -2.330439         1.434695        -2.446694
 O        -2.038006         0.272298        -1.898226
 C        -0.671398         0.329020        -1.167338
 H         0.893248         0.458548         0.699046
 H        -3.235945         0.532528         0.357233
 H        -2.719669         0.138746         1.974581
 H        -0.914044         2.320280         1.606780
 H        -1.779222         3.853115         0.108864
 H        -2.333716         3.682072        -2.145050
 H        -3.368829         1.308301        -2.923859
 H        -1.723839         1.629962        -3.475997
 H        -0.186195        -0.670950        -1.365216
 H        -0.057811         1.282893        -1.500361
