19
Iteration:   419charge 0 multiplicity 1
 O         0.065401        -0.062911         1.025597
 C        -0.875783         0.579665         0.191671
 C        -2.151838         0.569981         0.900057
 C        -1.481118         1.910568         0.687103
 C        -2.087171         2.904960        -0.239585
 C        -2.451998         2.788404        -1.580664
 C        -2.117626         1.604486        -2.490495
 O        -2.057573         0.319945        -1.768179
 C        -0.770503         0.065534        -1.212948
 H         0.777487         0.506165         1.347529
 H        -3.101962         0.567732         0.342228
 H        -2.120927         0.028529         1.872142
 H        -0.918498         2.461470         1.397209
 H        -2.005629         3.921046         0.198066
 H        -2.852236         3.625482        -2.082204
 H        -2.709790         1.542039        -3.436742
 H        -0.978785         1.775237        -2.623931
 H        -0.799907        -0.987695        -1.022242
 H        -0.004204         0.278561        -1.945567
