19
Iteration:  2425
 O         0.191942         0.098508         1.094974
 C        -0.942980         0.454136         0.290009
 C        -2.323176         0.533581         0.948686
 C        -1.481889         1.848269         0.607451
 C        -1.951621         2.839745        -0.301825
 C        -2.270351         2.830695        -1.625336
 C        -2.178864         1.620645        -2.504800
 O        -2.059684         0.329369        -1.771804
 C        -0.859354         0.051104        -1.200402
 H         1.053654         0.353723         0.638469
 H        -3.063977         0.493923         0.227374
 H        -2.623307         0.346716         1.959605
 H        -1.046681         2.288985         1.443254
 H        -2.225004         3.760269         0.207620
 H        -2.943271         3.636532        -1.887958
 H        -3.184692         1.518410        -2.954521
 H        -1.297221         1.753221        -3.231483
 H        -0.445869        -0.947065        -1.360710
 H        -0.052900         0.726476        -1.546060
