19
Iteration:  4651
 O         0.241385         0.280475         0.862128
 C        -0.997370         0.502319         0.316828
 C        -2.213238         0.413814         1.233546
 C        -1.664475         1.826289         0.629424
 C        -2.155039         2.868673        -0.239367
 C        -2.070231         2.785382        -1.549786
 C        -1.914336         1.706008        -2.454441
 O        -2.101119         0.387709        -2.005023
 C        -1.084424        -0.170685        -1.154543
 H         0.896371         0.806509         0.409564
 H        -3.102741        -0.042087         0.681989
 H        -2.199637         0.292467         2.375927
 H        -1.105868         2.221397         1.541918
 H        -2.346471         3.796285         0.147147
 H        -2.240568         3.741664        -2.144451
 H        -2.588029         1.887100        -3.349201
 H        -1.008180         1.787696        -3.030932
 H        -1.144150        -1.309143        -0.916844
 H        -0.034185        -0.129360        -1.588385
