19
Iteration:  4121
 O        -0.042683        -0.063868         1.093177
 C        -0.978852         0.474574         0.245529
 C        -2.265657         0.735400         0.995509
 C        -1.329996         1.909952         0.618860
 C        -1.940089         2.896380        -0.268877
 C        -2.479930         2.717638        -1.494039
 C        -2.190405         1.586734        -2.413874
 O        -1.929131         0.238732        -1.996227
 C        -0.738520         0.194406        -1.163761
 H         0.819043         0.033188         0.761126
 H        -3.135271         0.590665         0.367886
 H        -2.306753         0.364349         2.000489
 H        -0.727830         2.307779         1.393888
 H        -2.100485         3.891432         0.135634
 H        -2.870076         3.472630        -2.111574
 H        -3.156674         1.342311        -2.918648
 H        -1.450995         1.895531        -3.212807
 H        -0.273511        -0.900890        -1.320010
 H         0.014938         0.935721        -1.650631
