19
Iteration:  2555
 O         0.149354        -0.031416         1.196887
 C        -0.834191         0.533635         0.279076
 C        -2.245578         0.561019         0.872180
 C        -1.513453         1.908793         0.684481
 C        -1.986285         2.922458        -0.316738
 C        -2.272023         2.842035        -1.639797
 C        -2.348793         1.607553        -2.526445
 O        -2.045193         0.307774        -1.814598
 C        -0.779966         0.034380        -1.221799
 H         0.991412         0.481602         1.019471
 H        -3.185481         0.371686         0.442478
 H        -2.303836         0.177105         1.834724
 H        -1.007426         2.212185         1.571163
 H        -2.152397         3.918146         0.035178
 H        -2.432837         3.851597        -2.037838
 H        -3.323100         1.472470        -2.947992
 H        -1.670850         1.703016        -3.429414
 H        -0.721476        -1.044402        -1.047936
 H         0.089708         0.431939        -1.895711
