19
Iteration:  1553charge 0 multiplicity 1
 O         0.188516         0.157518         0.889719
 C        -0.970714         0.478418         0.285363
 C        -2.136125         0.518894         1.167809
 C        -1.552937         1.831742         0.680362
 C        -2.174224         2.865684        -0.345687
 C        -2.148624         2.852941        -1.643166
 C        -1.870998         1.685583        -2.487034
 O        -2.145178         0.422288        -1.893514
 C        -1.087931        -0.153691        -1.055533
 H         0.965954         0.605756         0.399450
 H        -2.973003        -0.001130         0.805540
 H        -1.849708         0.112191         2.127389
 H        -0.963488         2.392180         1.476630
 H        -2.612467         3.732896         0.180529
 H        -2.630649         3.695719        -2.113234
 H        -2.577348         1.762127        -3.377152
 H        -0.891185         1.690716        -2.912130
 H        -1.581255        -1.195927        -0.993024
 H        -0.099253        -0.099994        -1.535758
