19
Iteration:   307charge 0 multiplicity 1
 O         0.317921         0.090503         0.712362
 C        -0.923859         0.522926         0.270095
 C        -2.260599         0.591376         1.050253
 C        -1.562472         1.840431         0.642386
 C        -2.264255         2.810754        -0.197469
 C        -2.340448         2.821890        -1.548980
 C        -1.777080         1.668502        -2.463490
 O        -2.052029         0.460675        -1.811060
 C        -1.024655        -0.126087        -1.111483
 H         0.283863         0.357140         1.665144
 H        -3.152815         0.269709         0.481946
 H        -2.354665         0.159951         2.045018
 H        -1.020499         2.330731         1.498507
 H        -2.724428         3.642538         0.373224
 H        -2.843274         3.633073        -2.112927
 H        -2.421987         1.578590        -3.343852
 H        -0.772379         1.889875        -2.854333
 H        -1.198604        -1.210666        -1.075049
 H        -0.016280        -0.100424        -1.580084
