19
Iteration:  4818charge 0 multiplicity 1
 O         0.201859         0.023271         0.976079
 C        -0.965593         0.485508         0.273445
 C        -2.267554         0.421094         0.904530
 C        -1.617505         1.844956         0.718123
 C        -1.972080         2.908676        -0.282488
 C        -2.062236         2.812044        -1.649458
 C        -2.211482         1.546713        -2.527103
 O        -2.090044         0.365604        -1.741098
 C        -0.910918         0.208291        -1.094066
 H         0.697394         0.810077         1.075146
 H        -3.076127         0.212368         0.312119
 H        -2.306125         0.076751         1.862953
 H        -1.350325         2.227590         1.649865
 H        -1.773439         3.957772         0.111325
 H        -2.513537         3.666541        -2.087555
 H        -3.139457         1.442615        -3.123846
 H        -1.468317         1.582356        -3.363279
 H        -0.571275        -0.831004        -1.465115
 H        -0.013891         0.820036        -1.615716
