19
Iteration:  2410charge 0 multiplicity 1
 O         0.229958         0.032891         1.035206
 C        -0.933407         0.503202         0.347041
 C        -2.274482         0.572133         1.008023
 C        -1.535306         1.865970         0.685279
 C        -2.027784         2.862074        -0.305581
 C        -2.285138         2.792520        -1.639475
 C        -2.091524         1.589863        -2.515538
 O        -2.125165         0.324950        -1.900011
 C        -0.870217         0.151533        -1.125988
 H         0.875058         0.107869         0.356833
 H        -3.308710         0.200173         0.573361
 H        -2.088506         0.314423         2.097195
 H        -1.140212         2.266884         1.675397
 H        -2.304988         3.816339         0.258584
 H        -2.701121         3.669091        -2.184631
 H        -2.847393         1.514930        -3.302461
 H        -1.146163         1.642400        -3.078033
 H        -0.661644        -0.927424        -1.169598
 H         0.045070         0.542109        -1.606857
