19
Iteration:  1021charge 0 multiplicity 1
 O         0.238091        -0.025712         1.078917
 C        -0.924336         0.510042         0.290613
 C        -2.231189         0.637761         1.055473
 C        -1.396123         1.944919         0.668735
 C        -2.104833         2.925470        -0.229191
 C        -2.326118         2.844628        -1.532704
 C        -2.052824         1.623374        -2.548396
 O        -2.133149         0.281753        -1.986789
 C        -0.944254        -0.021550        -1.190046
 H         1.057122         0.029921         0.579223
 H        -3.034158         0.276199         0.401301
 H        -2.364340         0.272606         2.146335
 H        -1.200023         2.349009         1.660112
 H        -2.384846         3.898470         0.177478
 H        -2.901130         3.635658        -2.029951
 H        -2.841061         1.687055        -3.392224
 H        -1.108608         1.729577        -3.115895
 H        -0.850420        -1.074422        -1.042177
 H        -0.108479         0.441129        -1.804368
