19
Iteration:  4630charge 0 multiplicity 1
 O         0.242488         0.237406         0.870778
 C        -1.013486         0.571673         0.262567
 C        -2.167251         0.421181         1.104146
 C        -1.683516         1.802053         0.780330
 C        -2.123238         2.823702        -0.213012
 C        -2.064734         2.851348        -1.587658
 C        -1.849307         1.610773        -2.575721
 O        -2.164105         0.376103        -1.910337
 C        -1.137639        -0.080994        -1.136910
 H         0.822506         0.935774         0.586866
 H        -3.229665         0.231641         0.763912
 H        -1.720304        -0.072817         2.032282
 H        -1.135328         2.365093         1.609499
 H        -2.535965         3.654284         0.286037
 H        -2.343767         3.794611        -2.194474
 H        -2.431606         1.625758        -3.534945
 H        -0.881058         1.626873        -2.972145
 H        -1.059004        -1.270429        -0.816919
 H        -0.091260         0.220073        -1.511045
