19
Iteration:  1861charge 0 multiplicity 1
 O         0.225488         0.079031         0.994671
 C        -0.959875         0.462238         0.303162
 C        -2.277491         0.636172         1.144719
 C        -1.419516         1.881376         0.615902
 C        -2.013669         2.802921        -0.296577
 C        -2.442525         2.656863        -1.508449
 C        -1.957822         1.740877        -2.470697
 O        -2.040421         0.388125        -2.060491
 C        -1.057486        -0.094420        -1.139216
 H         0.910248         0.748517         0.794057
 H        -3.301015         0.712657         0.736876
 H        -2.175500         0.492358         2.227276
 H        -0.913491         2.366590         1.461379
 H        -2.053009         3.845676         0.059519
 H        -2.946031         3.468893        -2.134583
 H        -2.612762         1.756137        -3.409016
 H        -0.872492         1.975986        -2.637865
 H        -1.244628        -1.113618        -0.984654
 H        -0.027128         0.152535        -1.627024
