19
Iteration:  1452charge 0 multiplicity 1
 O         0.159362        -0.011820         0.991588
 C        -1.003657         0.509945         0.317350
 C        -2.220492         0.753054         1.101657
 C        -1.307331         1.904172         0.646202
 C        -2.065748         2.908116        -0.246083
 C        -2.496742         2.697776        -1.495753
 C        -1.950606         1.724794        -2.535796
 O        -2.030368         0.295733        -2.110472
 C        -0.990538        -0.081479        -1.060812
 H         0.902563         0.313564         0.433239
 H        -3.169505         0.510740         0.550279
 H        -2.162942         0.445979         2.189165
 H        -0.852102         2.382675         1.504744
 H        -2.307520         3.694849         0.443515
 H        -3.308651         3.428110        -1.969872
 H        -2.462069         1.703017        -3.601912
 H        -0.979497         2.113432        -2.650915
 H        -1.139423        -1.154515        -0.972963
 H         0.021984        -0.059907        -1.525527
