19
Iteration:   282
 O         0.283629        -0.076576         0.949167
 C        -0.853542         0.490978         0.345925
 C        -2.162178         0.526874         0.941772
 C        -1.419174         1.927345         0.542960
 C        -2.190675         2.891890        -0.263105
 C        -2.556712         2.817705        -1.593344
 C        -1.861961         1.783226        -2.405983
 O        -2.096950         0.416772        -1.932233
 C        -1.010663        -0.092686        -1.115122
 H         0.492347         0.644706         1.655261
 H        -3.049797         0.180146         0.423434
 H        -2.290806         0.320343         2.013939
 H        -0.916959         2.453894         1.454242
 H        -2.615621         3.760098         0.280792
 H        -3.505313         3.341217        -1.985724
 H        -2.113004         1.784312        -3.507946
 H        -0.791692         2.127137        -2.221597
 H        -1.309012        -1.176145        -1.056299
 H        -0.037116        -0.104593        -1.551261
