19
Iteration:  1769
 O         0.202902         0.062003         1.158072
 C        -0.851517         0.445151         0.368696
 C        -2.303338         0.465628         0.939330
 C        -1.580237         1.751737         0.609435
 C        -1.739702         2.831305        -0.371953
 C        -2.277409         2.817150        -1.625553
 C        -2.353355         1.610945        -2.528341
 O        -2.176573         0.334484        -1.845085
 C        -0.823581         0.247182        -1.175443
 H         0.967526         0.602654         1.055010
 H        -3.175292         0.107215         0.396416
 H        -2.497624         0.366215         1.989292
 H        -1.272442         2.214073         1.574948
 H        -1.504429         3.842361         0.036169
 H        -2.215233         3.784979        -2.061471
 H        -3.177073         1.496748        -3.132594
 H        -1.456626         1.779498        -3.168692
 H        -0.469323        -0.736270        -1.526571
 H        -0.289810         1.080147        -1.533707
