19
Iteration:  3335charge 0 multiplicity 1
 O         0.055177        -0.109066         1.187869
 C        -0.880899         0.477640         0.356222
 C        -2.300602         0.618870         0.892877
 C        -1.397194         1.832394         0.677568
 C        -1.872345         2.846725        -0.395043
 C        -2.361146         2.765825        -1.612564
 C        -2.403919         1.617580        -2.446602
 O        -1.992720         0.343934        -1.898970
 C        -0.712391         0.257190        -1.203729
 H         0.905536         0.175510         0.985463
 H        -3.083483         0.201329         0.276494
 H        -2.409942         0.122401         1.904109
 H        -1.082728         2.441394         1.443348
 H        -1.842731         3.802642         0.152980
 H        -2.689942         3.707231        -2.126006
 H        -3.374659         1.546277        -2.859877
 H        -1.814524         1.832540        -3.371165
 H        -0.214595        -0.691529        -1.373434
 H        -0.064382         1.020456        -1.647041
