19
Iteration:  3663
 O         0.085474        -0.034812         1.024206
 C        -0.941266         0.548732         0.276607
 C        -2.357844         0.532431         0.908586
 C        -1.596034         1.859206         0.672728
 C        -1.854517         2.831495        -0.376659
 C        -2.150588         2.748804        -1.610834
 C        -2.383204         1.520955        -2.326468
 O        -1.966229         0.303465        -1.843090
 C        -0.726626         0.305696        -1.192222
 H         0.820136         0.633329         1.179335
 H        -3.195530         0.108365         0.338727
 H        -2.397226         0.206086         1.957828
 H        -1.312804         2.325158         1.667606
 H        -1.717595         3.882379         0.106561
 H        -1.906286         3.656152        -2.231727
 H        -3.468513         1.452072        -2.484044
 H        -2.126275         1.770576        -3.413050
 H        -0.336151        -0.682415        -1.421955
 H         0.039527         1.091358        -1.592705
