19
Iteration:  1783charge 0 multiplicity 1
 O         0.237267         0.007502         1.158197
 C        -0.963836         0.474008         0.352921
 C        -2.277865         0.396169         0.939515
 C        -1.516432         1.827993         0.616739
 C        -1.830651         2.901334        -0.374870
 C        -2.242230         2.837741        -1.680528
 C        -2.243814         1.589018        -2.483924
 O        -2.131797         0.376774        -1.830041
 C        -0.960676         0.244886        -1.119468
 H         0.999032         0.425070         0.591914
 H        -2.943870        -0.047458         0.169740
 H        -2.211606         0.081843         2.035398
 H        -1.215233         2.221598         1.551350
 H        -1.789901         3.905702         0.033093
 H        -2.608686         3.622283        -2.292111
 H        -3.216267         1.557145        -3.036995
 H        -1.475968         1.630442        -3.231359
 H        -0.515171        -0.666605        -1.211467
 H        -0.101439         0.785347        -1.629256
