19
Iteration:  2252charge 0 multiplicity 1
 O         0.148768         0.113440         1.025059
 C        -1.002242         0.502580         0.332598
 C        -2.156269         0.610381         1.304532
 C        -1.423124         1.852214         0.693723
 C        -2.097871         2.835695        -0.281608
 C        -2.380776         2.766864        -1.619640
 C        -1.919156         1.651438        -2.586982
 O        -2.107878         0.347729        -2.095945
 C        -1.021042        -0.075517        -1.155303
 H         0.983786         0.590349         0.748791
 H        -3.104919         0.475824         0.917720
 H        -1.922984         0.319389         2.290444
 H        -0.717014         2.227329         1.397536
 H        -2.374379         3.773690         0.185914
 H        -2.873620         3.680961        -2.080517
 H        -2.498077         1.884005        -3.568498
 H        -0.865404         1.933069        -2.979615
 H        -1.056275        -1.207887        -1.160248
 H        -0.042451         0.137339        -1.643618
