19
Iteration:  4209
 O         0.251472         0.279607         0.914911
 C        -0.975153         0.435138         0.284406
 C        -2.214974         0.507915         1.043286
 C        -1.577964         1.765008         0.613453
 C        -2.167358         2.887485        -0.318409
 C        -2.112140         2.817841        -1.602509
 C        -1.884126         1.620245        -2.409580
 O        -2.161337         0.405029        -1.852901
 C        -1.078563        -0.128839        -1.126752
 H         0.936852         0.769912         0.388793
 H        -3.152297         0.095518         0.688606
 H        -2.196121         0.421301         2.144735
 H        -1.057873         2.085998         1.476731
 H        -2.468074         3.661832         0.263488
 H        -2.646781         3.567099        -2.068906
 H        -2.326302         1.817868        -3.379491
 H        -0.796336         1.831408        -2.598507
 H        -1.308831        -1.249557        -0.901824
 H        -0.120498         0.111820        -1.591220
