19
Iteration:  4373charge 0 multiplicity 1
 O         0.115079         0.013927         1.087036
 C        -0.961259         0.488771         0.272561
 C        -2.259944         0.566904         1.056023
 C        -1.394154         1.863521         0.675257
 C        -2.022521         2.938244        -0.252355
 C        -2.400671         2.789240        -1.570656
 C        -2.071352         1.634927        -2.514964
 O        -2.076766         0.274710        -2.005141
 C        -0.832015         0.053022        -1.165011
 H         0.811576         0.587555         0.899470
 H        -3.286907         0.626331         0.614435
 H        -2.237308         0.235272         2.118175
 H        -0.726230         2.289474         1.478766
 H        -2.288722         3.848361         0.287112
 H        -2.734848         3.813402        -2.030491
 H        -2.791823         1.545846        -3.360228
 H        -1.160745         1.797176        -3.161926
 H        -0.737570        -1.042199        -1.259809
 H         0.024300         0.575857        -1.680821
