19
Iteration:  4770charge 0 multiplicity 1
 O         0.032666         0.006668         1.101917
 C        -0.993216         0.459494         0.308753
 C        -2.198418         0.646051         1.020867
 C        -1.403566         1.940863         0.760174
 C        -1.941200         2.884956        -0.253144
 C        -2.413760         2.743749        -1.534924
 C        -2.179355         1.634014        -2.462481
 O        -1.924812         0.281283        -2.113044
 C        -0.860495         0.072370        -1.163895
 H         0.852084         0.309087         0.522494
 H        -3.195009         0.507122         0.435516
 H        -2.183564         0.093392         2.039845
 H        -0.701929         2.381071         1.547398
 H        -2.247839         3.766646         0.238340
 H        -2.894020         3.615874        -2.145421
 H        -3.123691         1.567487        -3.122689
 H        -1.529329         1.998953        -3.220357
 H        -0.701684        -0.979614        -1.335795
 H         0.065911         0.469458        -1.657356
