19
Iteration:  1620charge 0 multiplicity 1
 O         0.155045        -0.072848         0.936332
 C        -0.964576         0.557357         0.328618
 C        -2.305617         0.546321         0.967240
 C        -1.460010         1.908683         0.669307
 C        -1.928581         2.965263        -0.293418
 C        -2.270066         2.794146        -1.630499
 C        -2.171903         1.557802        -2.543864
 O        -2.059642         0.334875        -1.798330
 C        -0.847005         0.151672        -1.094079
 H         0.894663         0.485736         1.059023
 H        -3.148285         0.113054         0.393197
 H        -2.368520         0.125813         1.966284
 H        -1.007314         2.280494         1.607292
 H        -2.349756         3.825051         0.199956
 H        -2.846707         3.535545        -2.099501
 H        -3.150103         1.603037        -3.102817
 H        -1.356268         1.662953        -3.269670
 H        -0.638345        -0.973557        -0.865253
 H         0.005735         0.294274        -1.712020
