19
Iteration:   491charge 0 multiplicity 1
 O         0.072449        -0.045773         0.887823
 C        -1.012675         0.623239         0.262988
 C        -2.212525         0.529421         1.051271
 C        -1.544208         1.970446         0.800699
 C        -1.885705         2.980985        -0.290009
 C        -2.243728         2.697477        -1.529558
 C        -2.333652         1.507390        -2.474477
 O        -1.903449         0.246265        -2.030845
 C        -0.788236         0.198098        -1.121333
 H         0.037068         0.128584         1.791629
 H        -3.202362         0.383724         0.632493
 H        -2.126657         0.260791         2.117123
 H        -1.029947         2.395936         1.664707
 H        -1.892174         4.003860        -0.017687
 H        -2.750256         3.546452        -2.007265
 H        -3.321418         1.250845        -2.896186
 H        -1.563111         1.799520        -3.267797
 H        -0.516021        -0.887303        -1.291092
 H         0.101278         0.739158        -1.619093
