19
Iteration:  1703
 O         0.139019        -0.085069         1.032782
 C        -0.929824         0.482517         0.270757
 C        -2.358396         0.643082         0.867619
 C        -1.619541         1.960508         0.782876
 C        -1.833748         3.048728        -0.237113
 C        -2.247115         2.796843        -1.581662
 C        -2.454535         1.444234        -2.347304
 O        -1.891193         0.238721        -1.984890
 C        -0.739759         0.118181        -1.200687
 H         1.012202         0.429387         0.819318
 H        -3.203634         0.818472         0.244072
 H        -2.516529         0.270420         1.844659
 H        -1.044062         2.301456         1.706405
 H        -1.650627         4.107971         0.167209
 H        -2.201450         3.673527        -2.273287
 H        -3.478514         1.289311        -2.567968
 H        -2.016028         1.640151        -3.307702
 H        -0.439567        -0.905753        -1.190934
 H        -0.043956         0.894598        -1.636427
