19
Iteration:  1148
 O         0.359874         0.192812         0.909338
 C        -0.952381         0.550717         0.295987
 C        -2.137317         0.507253         1.180730
 C        -1.648454         1.837225         0.636143
 C        -2.278827         2.874003        -0.336268
 C        -2.114622         2.954936        -1.671177
 C        -1.809557         1.696350        -2.370496
 O        -2.188414         0.333806        -1.913529
 C        -1.208527        -0.228259        -1.146425
 H         1.032356         0.311944         0.293491
 H        -3.057814        -0.054064         1.068090
 H        -1.906028         0.495363         2.281439
 H        -0.898127         2.265321         1.248223
 H        -2.813585         3.561141         0.234079
 H        -2.476615         3.789127        -2.337922
 H        -2.139695         1.829914        -3.401100
 H        -0.679276         1.573208        -2.321306
 H        -1.430985        -1.357210        -1.006941
 H        -0.396245        -0.218359        -1.831211
