19
Iteration:   713charge 0 multiplicity 1
 O         0.315137         0.015652         0.808071
 C        -1.002224         0.490663         0.333075
 C        -2.205330         0.641809         1.294663
 C        -1.533674         1.961279         0.677998
 C        -2.158701         2.909648        -0.293518
 C        -2.368963         2.778116        -1.601149
 C        -1.841950         1.667857        -2.438996
 O        -2.119351         0.305565        -2.048879
 C        -1.077096        -0.135115        -1.149726
 H         0.853247         0.652649         1.213240
 H        -3.118138         0.269656         0.804874
 H        -2.035334         0.309853         2.300058
 H        -1.061212         2.548113         1.528075
 H        -2.316121         3.970966         0.197465
 H        -2.793393         3.647962        -2.168555
 H        -2.211131         1.663504        -3.412911
 H        -0.806659         1.809143        -2.604259
 H        -1.014781        -1.193220        -1.077674
 H        -0.192778         0.324050        -1.584176
