19
Iteration:  1674
 O        -0.002206        -0.027961         1.189635
 C        -0.883540         0.541570         0.306545
 C        -2.274654         0.578384         0.904211
 C        -1.347498         1.883544         0.683252
 C        -1.782194         2.838439        -0.378663
 C        -2.308855         2.748697        -1.573380
 C        -2.408723         1.537525        -2.471785
 O        -1.976098         0.316636        -1.964586
 C        -0.798790         0.249244        -1.174500
 H         0.927406        -0.024257         0.963880
 H        -3.203453         0.447234         0.265694
 H        -2.272471         0.132054         1.906951
 H        -1.069360         2.303995         1.645549
 H        -1.908423         3.732546         0.222893
 H        -2.940317         3.528957        -1.876522
 H        -3.571787         1.507018        -2.750558
 H        -1.853523         1.736495        -3.466889
 H        -0.320711        -0.737603        -1.231171
 H        -0.292285         1.140315        -1.602597
