19
Iteration:   235
 O         0.040090         0.005992         0.920553
 C        -1.034870         0.571203         0.223550
 C        -2.156425         0.649579         1.153054
 C        -1.333679         1.895088         0.674861
 C        -2.121172         2.800016        -0.147645
 C        -2.448131         2.743389        -1.476572
 C        -1.968828         1.690849        -2.533410
 O        -1.913098         0.321496        -2.076602
 C        -0.955582         0.034862        -1.129944
 H         0.854695         0.382451         0.554506
 H        -3.174972         0.637540         0.749022
 H        -2.133171         0.176733         2.125696
 H        -0.627403         2.134800         1.422570
 H        -2.677058         3.550303         0.368408
 H        -3.196886         3.360931        -1.861286
 H        -2.856103         1.609363        -3.247695
 H        -0.989456         1.871526        -3.137537
 H        -0.871767        -1.053608        -1.045143
 H         0.050999         0.390295        -1.381303
