19
Iteration:  4761charge 0 multiplicity 1
 O         0.032159        -0.021666         1.097311
 C        -0.966494         0.541531         0.246884
 C        -2.280946         0.615829         1.075087
 C        -1.348813         1.928914         0.681818
 C        -1.945654         2.882062        -0.290052
 C        -2.484018         2.709590        -1.480587
 C        -2.188344         1.681765        -2.498355
 O        -1.894608         0.308737        -2.068999
 C        -0.844227         0.003673        -1.181008
 H         0.978755         0.118984         0.674305
 H        -3.185818         0.682737         0.462294
 H        -2.317447         0.313696         2.134415
 H        -0.744264         2.428754         1.446219
 H        -2.270857         3.786402         0.205357
 H        -2.953865         3.678883        -1.867631
 H        -3.106414         1.456028        -3.136927
 H        -1.274207         2.120083        -3.110228
 H        -0.674773        -1.148911        -1.201379
 H         0.234534         0.522861        -1.481965
