19
Iteration:   730charge 0 multiplicity 1
 O         0.252296         0.136885         0.732119
 C        -0.988425         0.579206         0.300473
 C        -2.183783         0.550318         1.162562
 C        -1.582696         1.876176         0.718337
 C        -2.087601         2.902716        -0.196703
 C        -2.260633         2.780109        -1.578614
 C        -1.911970         1.625182        -2.542223
 O        -2.034512         0.323519        -1.991084
 C        -1.115946        -0.110033        -1.025585
 H         0.640347         0.872066         1.131335
 H        -3.172242         0.336869         0.758998
 H        -2.054402         0.466195         2.264164
 H        -0.950936         2.192688         1.519886
 H        -2.495692         3.717037         0.297354
 H        -2.695395         3.611082        -2.095508
 H        -2.554848         1.764729        -3.516750
 H        -0.773621         1.691286        -2.949770
 H        -1.522367        -1.130620        -0.603095
 H        -0.144161        -0.410320        -1.511740
