19
Iteration:  4207charge 0 multiplicity 1
 O         0.248530         0.267698         0.918952
 C        -0.975505         0.423838         0.286901
 C        -2.215549         0.524765         1.046943
 C        -1.580858         1.770384         0.605694
 C        -2.151699         2.883130        -0.324031
 C        -2.126106         2.805787        -1.599915
 C        -1.892346         1.629907        -2.400456
 O        -2.147061         0.405436        -1.853392
 C        -1.076194        -0.131253        -1.140543
 H         1.016326         0.781712         0.420104
 H        -3.142595         0.114976         0.689533
 H        -2.214394         0.465642         2.120765
 H        -1.069459         2.095423         1.463351
 H        -2.532658         3.717325         0.340164
 H        -2.656384         3.603705        -2.067424
 H        -2.325722         1.761186        -3.397947
 H        -0.869870         1.808633        -2.615243
 H        -1.261836        -1.231303        -0.951635
 H        -0.164524         0.157419        -1.524764
