19
Iteration:  2664
 O         0.284116         0.131013         0.982159
 C        -0.994900         0.405973         0.293714
 C        -2.201606         0.653829         1.258680
 C        -1.488680         1.823372         0.515784
 C        -2.220165         2.930588        -0.263239
 C        -2.453292         2.799436        -1.556712
 C        -1.749562         1.697942        -2.512699
 O        -2.121195         0.380370        -2.011040
 C        -1.039009        -0.153744        -1.103851
 H         0.963046        -0.121472         0.261332
 H        -3.212182         0.410307         0.966106
 H        -1.936103         0.601863         2.322427
 H        -0.780635         2.198329         1.234355
 H        -2.635393         3.774999         0.348501
 H        -2.980567         3.617476        -2.145852
 H        -2.226320         1.724375        -3.490349
 H        -0.652240         1.835754        -2.698388
 H        -1.109830        -1.244019        -1.102183
 H        -0.089679         0.055625        -1.591777
