19
Iteration:  3267charge 0 multiplicity 1
 O         0.045607         0.025148         1.055708
 C        -0.996055         0.539680         0.218811
 C        -2.317536         0.584686         0.879253
 C        -1.481133         1.870467         0.720106
 C        -1.936460         2.958192        -0.202463
 C        -2.075941         2.766312        -1.564028
 C        -2.419147         1.523016        -2.379077
 O        -1.965666         0.233086        -1.931695
 C        -0.723162         0.133510        -1.238549
 H         0.877831         0.567812         0.886970
 H        -3.195390         0.316612         0.219920
 H        -2.360130         0.061644         1.842815
 H        -1.028271         2.230631         1.674606
 H        -2.012387         4.033938         0.071054
 H        -2.192379         3.870116        -1.974113
 H        -3.451462         1.455771        -2.445908
 H        -2.185925         1.729485        -3.445216
 H        -0.232090        -0.810282        -1.315258
 H         0.080727         0.812584        -1.482735
