19
Iteration:  2183charge 0 multiplicity 1
 O         0.183982         0.032457         1.113202
 C        -0.860549         0.467550         0.301301
 C        -2.323346         0.582860         0.888807
 C        -1.553987         1.790978         0.654741
 C        -1.863299         2.928632        -0.330648
 C        -2.353121         2.734932        -1.579203
 C        -2.164541         1.609869        -2.460712
 O        -2.172824         0.335674        -1.784557
 C        -0.844453         0.138946        -1.192227
 H         1.006910         0.465806         0.659562
 H        -3.074943         0.108925         0.178388
 H        -2.524203         0.347602         2.004379
 H        -1.196807         2.324085         1.570352
 H        -1.628709         4.015885        -0.060937
 H        -2.419943         3.579398        -2.239260
 H        -2.950029         1.539668        -3.324022
 H        -1.204749         1.713435        -3.219053
 H        -0.447182        -0.864199        -1.252394
 H        -0.002846         0.748190        -1.721903
