19
Iteration:   894charge 0 multiplicity 1
 O         0.205285        -0.127093         1.024030
 C        -0.896664         0.454873         0.310902
 C        -2.349788         0.734217         0.828781
 C        -1.438390         1.903996         0.655259
 C        -1.902078         3.044646        -0.211197
 C        -2.276007         2.799378        -1.516101
 C        -2.410325         1.495755        -2.522429
 O        -1.993256         0.165261        -1.936111
 C        -0.783510         0.209294        -1.089705
 H         0.579506         0.611692         1.649054
 H        -3.070820         0.618108         0.013134
 H        -2.576183         0.256634         1.802944
 H        -0.909434         2.286382         1.585666
 H        -2.286247         3.940953         0.307526
 H        -2.608899         3.662734        -2.192759
 H        -3.558477         1.427949        -2.716620
 H        -1.796142         1.721783        -3.448710
 H        -0.236527        -0.826838        -1.178893
 H        -0.054024         0.888921        -1.471959
