19
Iteration:   603
 O         0.202341         0.214732         0.875742
 C        -1.000490         0.548273         0.269406
 C        -2.303766         0.576713         1.052257
 C        -1.489406         1.872297         0.720395
 C        -2.065716         2.775573        -0.219135
 C        -2.137836         2.729845        -1.567453
 C        -2.036117         1.607501        -2.483852
 O        -2.133142         0.298501        -1.903113
 C        -0.872991         0.072919        -1.163626
 H         0.181516        -0.756815         1.124701
 H        -3.146970         0.423881         0.383186
 H        -2.320549         0.064911         2.039245
 H        -0.881131         2.280755         1.540915
 H        -2.415332         3.776375         0.231389
 H        -2.620899         3.590514        -2.010511
 H        -2.981849         1.801644        -2.959848
 H        -1.176270         1.694931        -3.279036
 H        -0.606220        -0.984532        -0.967071
 H        -0.075000         0.625694        -1.740554
