19
Iteration:  4676charge 0 multiplicity 1
 O         0.294715         0.186214         0.940718
 C        -0.982419         0.417036         0.316146
 C        -2.276010         0.509828         1.170650
 C        -1.570079         1.813271         0.666712
 C        -2.140952         2.863427        -0.228332
 C        -2.259330         2.929029        -1.590270
 C        -1.906879         1.670082        -2.539100
 O        -2.083532         0.347776        -1.990612
 C        -1.050576        -0.081096        -1.136115
 H         0.955071         0.548501         0.430398
 H        -3.174788         0.192650         0.672526
 H        -2.242216         0.265878         2.201229
 H        -0.871240         2.128009         1.446034
 H        -2.369148         3.881920         0.292876
 H        -2.717007         3.876916        -2.023035
 H        -2.477367         1.728199        -3.447471
 H        -0.982434         1.668605        -3.000428
 H        -1.110736        -1.279100        -0.883919
 H         0.028988        -0.090323        -1.584304
