19
Iteration:  2443
 O         0.129365         0.067524         1.176109
 C        -0.903791         0.466615         0.270820
 C        -2.241085         0.555305         0.820254
 C        -1.452915         1.797483         0.597177
 C        -1.957981         2.918268        -0.275818
 C        -2.321319         2.811347        -1.583656
 C        -2.309791         1.539937        -2.448553
 O        -2.068472         0.375004        -1.843099
 C        -0.742288         0.060437        -1.151543
 H         0.815625         0.775218         0.997400
 H        -3.164043         0.350802         0.142973
 H        -2.212114         0.147586         1.899026
 H        -0.996011         2.203707         1.544275
 H        -1.994720         4.010022         0.086479
 H        -2.332004         3.756144        -2.166921
 H        -3.239676         1.534376        -3.020149
 H        -1.620129         1.705648        -3.267344
 H        -0.867727        -1.012474        -1.244153
 H        -0.027790         0.570582        -1.809708
