19
Iteration:  4040charge 0 multiplicity 1
 O         0.141568         0.189948         1.030532
 C        -0.987826         0.465233         0.278409
 C        -2.307054         0.311864         0.971111
 C        -1.662955         1.758783         0.673324
 C        -1.835827         2.853818        -0.326569
 C        -2.020400         2.826606        -1.679607
 C        -2.297579         1.576296        -2.472596
 O        -2.126086         0.331435        -1.769061
 C        -0.835774         0.219359        -1.135606
 H         0.832614         0.811132         0.784949
 H        -3.151673         0.125377         0.280961
 H        -2.447551        -0.024704         2.010707
 H        -1.126279         2.207106         1.519577
 H        -1.365978         3.704157         0.111563
 H        -2.008894         3.850200        -2.266959
 H        -3.278440         1.611536        -2.949273
 H        -1.577074         1.774731        -3.241646
 H        -0.392699        -0.786343        -1.373589
 H        -0.184404         1.154378        -1.529549
