19
Iteration:  1601charge 0 multiplicity 1
 O         0.273984         0.099967         0.952759
 C        -0.974824         0.507501         0.335761
 C        -2.262874         0.554599         0.977398
 C        -1.527620         1.884624         0.731507
 C        -1.946357         2.875660        -0.253228
 C        -2.243756         2.759101        -1.591131
 C        -2.077296         1.616816        -2.502960
 O        -2.116658         0.304869        -1.922521
 C        -1.019444        -0.018271        -1.130998
 H         0.803658         0.831683         0.722678
 H        -3.184991         0.484495         0.317261
 H        -2.555734         0.387096         2.028715
 H        -1.108892         2.290391         1.618153
 H        -2.041590         3.891626         0.122145
 H        -2.507496         3.772858        -1.976649
 H        -2.864115         1.673402        -3.185677
 H        -1.121451         1.670036        -3.050856
 H        -0.981467        -1.180234        -0.984494
 H        -0.141543         0.453460        -1.667075
