19
Iteration:   452
 O         0.176141        -0.109491         1.088264
 C        -0.955270         0.384927         0.393063
 C        -2.243592         0.735511         1.016271
 C        -1.296974         1.906422         0.630469
 C        -2.033300         2.886449        -0.265817
 C        -2.409838         2.793459        -1.525656
 C        -2.291758         1.589057        -2.566173
 O        -1.926066         0.297826        -2.049839
 C        -0.822670         0.156798        -1.216788
 H         0.266347         0.469249         1.938090
 H        -3.105122         0.720544         0.313323
 H        -2.594154         0.491752         2.027163
 H        -0.732305         2.400134         1.418864
 H        -2.504272         3.703877         0.360330
 H        -3.267843         3.406065        -1.765630
 H        -3.222178         1.554408        -3.163027
 H        -1.557858         1.882110        -3.409567
 H        -0.528531        -0.862421        -1.234185
 H         0.084728         0.697459        -1.467809
