19
Iteration:  1079charge 0 multiplicity 1
 O         0.158201        -0.109379         1.026338
 C        -0.980688         0.509605         0.195709
 C        -2.032766         0.753977         1.212283
 C        -1.378173         1.984849         0.656201
 C        -2.273510         2.933991        -0.274590
 C        -2.498917         2.755761        -1.584320
 C        -1.859260         1.695876        -2.422999
 O        -2.020965         0.311269        -2.108940
 C        -1.093631        -0.118622        -1.148668
 H         1.050452         0.358334         0.894070
 H        -3.029450         0.455761         0.801251
 H        -1.859470         0.418932         2.197078
 H        -0.518203         2.556434         1.121837
 H        -2.777657         3.791099         0.296420
 H        -3.247524         3.453652        -1.942273
 H        -2.238203         1.736775        -3.401335
 H        -0.746491         1.941320        -2.397249
 H        -1.205285        -1.230567        -1.024438
 H        -0.041047         0.017764        -1.611553
