19
Iteration:  2205charge 0 multiplicity 1
 O         0.176265        -0.004344         0.935044
 C        -0.986499         0.540742         0.302224
 C        -2.300273         0.531446         1.006486
 C        -1.477536         1.897727         0.654478
 C        -2.014317         2.938214        -0.296316
 C        -2.255393         2.851144        -1.608294
 C        -2.124765         1.574837        -2.465272
 O        -2.009103         0.286775        -1.823521
 C        -0.906511         0.043387        -1.114779
 H         0.778709         0.699846         0.827511
 H        -3.133349         0.446016         0.237586
 H        -2.486533         0.158929         2.049126
 H        -0.943677         2.404873         1.497675
 H        -2.248489         3.962706         0.114973
 H        -2.824479         3.706058        -1.956048
 H        -2.949246         1.518923        -3.236246
 H        -1.193765         1.685497        -3.193839
 H        -0.775480        -1.023620        -0.959495
 H         0.072924         0.305518        -1.680818
