19
Iteration:  4379
 O         0.127138         0.010554         1.092975
 C        -0.946526         0.492975         0.301757
 C        -2.234628         0.589029         1.073715
 C        -1.476591         1.845986         0.683850
 C        -1.991493         2.913805        -0.237250
 C        -2.345275         2.771953        -1.578719
 C        -2.120008         1.622947        -2.563510
 O        -2.063540         0.307538        -1.993325
 C        -0.864144         0.079628        -1.225291
 H         0.822931         0.707836         0.907549
 H        -3.168408         0.453191         0.546832
 H        -2.207563         0.242879         2.087283
 H        -0.870689         2.251941         1.445800
 H        -2.322379         3.888953         0.320296
 H        -2.536001         3.651964        -2.073745
 H        -2.934588         1.544337        -3.286654
 H        -1.131234         1.775266        -3.025654
 H        -0.773096        -1.046094        -1.107089
 H         0.029279         0.557379        -1.640030
