19
Iteration:  4386
 O         0.148488         0.020178         1.081548
 C        -0.952397         0.503724         0.307903
 C        -2.214717         0.599984         1.075309
 C        -1.567936         1.858664         0.693642
 C        -1.990707         2.850738        -0.258068
 C        -2.235190         2.750615        -1.550936
 C        -2.166723         1.604219        -2.578342
 O        -2.034393         0.346987        -1.965489
 C        -0.931859         0.099615        -1.246850
 H         0.945410         0.692259         1.049744
 H        -3.017034         0.212460         0.460642
 H        -2.158211         0.269117         2.112904
 H        -1.066780         2.321217         1.614059
 H        -2.162371         3.759286         0.134949
 H        -2.528960         3.668711        -2.194040
 H        -3.060997         1.656289        -3.231473
 H        -1.185311         1.853531        -3.063795
 H        -0.702645        -1.095314        -1.126987
 H         0.007176         0.492213        -1.700128
