19
Iteration:  1447
 O         0.148511        -0.039979         0.970721
 C        -0.970493         0.530242         0.283765
 C        -2.235828         0.732359         1.122476
 C        -1.368746         1.920421         0.620645
 C        -2.038259         2.855293        -0.263428
 C        -2.510533         2.680378        -1.496953
 C        -1.964206         1.696399        -2.542512
 O        -1.996784         0.339276        -2.039599
 C        -1.011911        -0.064267        -1.069572
 H         0.931981         0.336035         0.474936
 H        -3.123785         0.596440         0.543314
 H        -2.123697         0.490923         2.162762
 H        -0.892733         2.458915         1.452728
 H        -2.316985         3.790576         0.287797
 H        -3.090356         3.476678        -1.804825
 H        -2.496643         1.810807        -3.457810
 H        -0.873808         2.045119        -2.744469
 H        -1.101927        -1.169571        -1.032995
 H         0.042839         0.078943        -1.413389
