19
Iteration:  4627charge 0 multiplicity 1
 O         0.242252         0.218596         0.875257
 C        -0.995316         0.573522         0.267253
 C        -2.176574         0.421884         1.100847
 C        -1.672167         1.837374         0.758084
 C        -2.113925         2.801124        -0.237258
 C        -2.073317         2.832272        -1.585270
 C        -1.864943         1.633092        -2.553445
 O        -2.186431         0.380489        -1.919032
 C        -1.119428        -0.084836        -1.108080
 H         0.907495         1.000119         0.605496
 H        -3.194336         0.220260         0.746724
 H        -1.799685        -0.061349         2.040755
 H        -1.212122         2.319803         1.634515
 H        -2.568682         3.606450         0.241198
 H        -2.322664         3.707291        -2.107111
 H        -2.373421         1.682786        -3.548712
 H        -0.821685         1.614552        -2.903610
 H        -0.955506        -1.128934        -0.933344
 H        -0.186728         0.203741        -1.559891
