19
Iteration:   566charge 0 multiplicity 1
 O         0.297090         0.124805         1.037263
 C        -0.906918         0.521882         0.346143
 C        -2.183729         0.280344         1.011043
 C        -1.697417         1.789689         0.620645
 C        -1.931326         2.899501        -0.382600
 C        -2.214878         2.846551        -1.698608
 C        -2.233361         1.737842        -2.529923
 O        -2.146207         0.372526        -1.799107
 C        -0.868883         0.107489        -1.107433
 H         0.022768        -0.174948         1.979464
 H        -2.989700        -0.261729         0.501161
 H        -2.250898         0.258337         2.092897
 H        -1.332152         2.299968         1.497338
 H        -1.573694         3.847038        -0.152283
 H        -2.240525         3.814157        -2.221105
 H        -3.235505         1.663392        -3.110752
 H        -1.453258         1.842234        -3.338979
 H        -0.781907        -0.971378        -1.297654
 H         0.046916         0.450599        -1.646995
