19
Iteration:  1461charge 0 multiplicity 1
 O         0.163412         0.037350         1.040432
 C        -0.977957         0.460504         0.340870
 C        -2.200329         0.744368         1.095973
 C        -1.275694         1.961401         0.657656
 C        -2.089099         2.944464        -0.176972
 C        -2.503352         2.774665        -1.526216
 C        -1.925799         1.727094        -2.464567
 O        -2.035242         0.241618        -2.200461
 C        -1.022120        -0.153772        -1.142810
 H         0.940302         0.250708         0.466870
 H        -3.201858         0.605961         0.599546
 H        -2.275297         0.429614         2.218325
 H        -0.584234         2.185100         1.441165
 H        -2.644986         3.710092         0.354809
 H        -3.441345         3.277439        -1.967624
 H        -2.466705         1.735731        -3.536785
 H        -0.898826         1.884345        -2.662239
 H        -1.296394        -1.126803        -0.878212
 H        -0.060459        -0.000380        -1.664235
