19
Iteration:  2660charge 0 multiplicity 1
 O         0.279652         0.134332         0.973252
 C        -1.020396         0.405239         0.303154
 C        -2.178889         0.657137         1.259492
 C        -1.521313         1.866424         0.565618
 C        -2.226976         2.919883        -0.271588
 C        -2.416362         2.790449        -1.563483
 C        -1.785669         1.717642        -2.500803
 O        -2.105290         0.384074        -2.018926
 C        -1.008156        -0.181355        -1.119125
 H         0.822064        -0.110306         0.238046
 H        -3.157486         0.390715         0.908885
 H        -1.977122         0.622635         2.286901
 H        -0.648065         2.126057         1.160270
 H        -2.661206         3.671540         0.337011
 H        -2.777447         3.577143        -2.144905
 H        -2.358339         1.690938        -3.456569
 H        -0.780526         1.771508        -2.772862
 H        -1.130955        -1.250768        -1.133600
 H        -0.046751         0.037576        -1.547988
