19
Iteration:  4115charge 0 multiplicity 1
 O        -0.034391        -0.073644         1.104011
 C        -0.938726         0.520388         0.240910
 C        -2.299066         0.711994         0.971742
 C        -1.360717         1.871131         0.597867
 C        -1.929852         2.946394        -0.257662
 C        -2.438286         2.679670        -1.497730
 C        -2.242578         1.563148        -2.438982
 O        -1.919065         0.231762        -1.971520
 C        -0.706322         0.194468        -1.183259
 H         0.879226         0.089955         0.803640
 H        -3.266515         0.530599         0.463692
 H        -2.301196         0.471177         2.062865
 H        -0.794317         2.221165         1.500178
 H        -1.977536         3.977524         0.106078
 H        -2.942084         3.587785        -2.031666
 H        -3.233306         1.640609        -2.924041
 H        -1.492462         1.913572        -3.207219
 H        -0.453884        -0.776359        -1.305399
 H         0.008919         0.874857        -1.556647
