19
Iteration:  2512
 O         0.105672        -0.006192         1.020621
 C        -1.005437         0.528654         0.277619
 C        -2.366643         0.614655         1.047819
 C        -1.509099         1.867396         0.740511
 C        -1.798940         2.869226        -0.292328
 C        -2.217369         2.719186        -1.609849
 C        -2.362875         1.486509        -2.520582
 O        -2.024124         0.239112        -1.878561
 C        -0.700216         0.325170        -1.176846
 H         0.988563         0.338488         0.591663
 H        -3.226282         0.547400         0.437515
 H        -2.413750         0.141577         1.993553
 H        -1.084149         2.365981         1.574614
 H        -1.946542         3.814162         0.163463
 H        -2.438907         3.606050        -2.215389
 H        -3.312028         1.281472        -2.976341
 H        -1.750133         1.614977        -3.336371
 H        -0.242248        -0.615303        -1.405387
 H        -0.166699         1.159065        -1.466427
