19
Iteration:  1383
 O         0.200739         0.119612         1.091541
 C        -0.945051         0.482176         0.335760
 C        -2.267856         0.436843         0.980322
 C        -1.547813         1.842972         0.688843
 C        -1.899245         2.863562        -0.293855
 C        -2.162371         2.763973        -1.654455
 C        -2.259703         1.624972        -2.549670
 O        -2.131161         0.432627        -1.820381
 C        -0.892548         0.062592        -1.187994
 H         1.046193         0.609592         0.769883
 H        -3.119842         0.274591         0.305854
 H        -2.314009        -0.127423         1.915488
 H        -1.156084         2.245388         1.636048
 H        -1.835673         3.924360         0.002612
 H        -2.285672         3.709109        -2.092172
 H        -3.244314         1.495469        -3.151807
 H        -1.516477         1.619804        -3.284748
 H        -0.796584        -1.016764        -1.280139
 H        -0.012822         0.427556        -1.753024
