19
Iteration:  1686
 O         0.039799        -0.030847         1.095987
 C        -0.960759         0.552644         0.318315
 C        -2.344383         0.659383         0.879013
 C        -1.415320         1.875649         0.688209
 C        -1.799307         2.856337        -0.278901
 C        -2.311408         2.705736        -1.535649
 C        -2.443927         1.570918        -2.426464
 O        -1.917488         0.256147        -1.952853
 C        -0.739746         0.249405        -1.159010
 H         0.883767         0.219342         0.576120
 H        -3.046773         0.327907         0.070060
 H        -2.455341         0.250993         1.913297
 H        -1.027472         2.282513         1.591878
 H        -1.612255         3.895692        -0.151510
 H        -2.520136         3.650271        -2.009320
 H        -3.555224         1.288544        -2.631626
 H        -1.978517         1.801834        -3.447114
 H        -0.438085        -0.829628        -1.234661
 H         0.157495         0.781019        -1.561716
