19
Iteration:   878
 O         0.122927        -0.066171         1.073135
 C        -0.947866         0.563202         0.312054
 C        -2.317068         0.713776         0.871347
 C        -1.342844         1.936417         0.744475
 C        -1.835698         2.894574        -0.292391
 C        -2.424362         2.699090        -1.470258
 C        -2.341720         1.523730        -2.412799
 O        -1.965983         0.212600        -2.023319
 C        -0.787094         0.141046        -1.229457
 H         0.627045         0.636690         1.572264
 H        -3.096328         0.683452         0.104810
 H        -2.678971         0.449827         1.856843
 H        -1.025058         2.380530         1.673985
 H        -1.714321         3.936241         0.044442
 H        -2.898918         3.563637        -1.878225
 H        -3.227865         1.385177        -2.970222
 H        -1.739458         1.925151        -3.264339
 H        -0.579946        -0.887190        -1.284963
 H        -0.025324         0.825934        -1.704256
