19
Iteration:  1044charge 0 multiplicity 1
 O         0.127232        -0.051270         0.992187
 C        -0.989483         0.428063         0.287765
 C        -2.179080         0.774754         1.107046
 C        -1.333928         1.875568         0.582445
 C        -2.107499         2.748973        -0.305559
 C        -2.489373         2.733918        -1.542055
 C        -1.976588         1.695592        -2.496952
 O        -2.008835         0.428412        -1.905491
 C        -0.979417        -0.012514        -1.132708
 H         0.940622         0.505170         0.717424
 H        -3.161455         0.594230         0.622592
 H        -2.125441         0.572633         2.212571
 H        -0.430080         2.254464         1.144130
 H        -2.626556         3.610888         0.181840
 H        -3.228012         3.446278        -1.997758
 H        -2.508894         1.637251        -3.490288
 H        -0.937884         1.967206        -2.807553
 H        -0.918289        -1.089605        -1.121682
 H        -0.051599         0.449418        -1.622416
