19
Iteration:  1315
 O         0.073356        -0.057817         1.049517
 C        -0.926432         0.665991         0.291610
 C        -2.260390         0.545999         0.889389
 C        -1.526712         1.876050         0.750129
 C        -1.860446         2.774499        -0.322199
 C        -2.071520         2.747316        -1.642430
 C        -2.446152         1.556623        -2.415683
 O        -2.030005         0.262506        -1.859537
 C        -0.802280         0.272311        -1.190252
 H         0.705400         0.625184         1.235494
 H        -3.122074         0.330996         0.307216
 H        -2.349726         0.010713         1.828632
 H        -1.138961         2.533707         1.599964
 H        -1.752297         3.865183        -0.020768
 H        -2.215466         3.651756        -2.246157
 H        -3.573229         1.519965        -2.567277
 H        -1.942515         1.662411        -3.387351
 H        -0.319743        -0.767196        -1.205939
 H        -0.071453         0.935707        -1.683098
