19
Iteration:  1214
 O         0.242584         0.057621         0.965461
 C        -0.989852         0.457570         0.305574
 C        -2.242358         0.625831         1.093641
 C        -1.417364         1.924453         0.575246
 C        -2.083116         2.959380        -0.188217
 C        -2.304528         2.770668        -1.514360
 C        -1.978981         1.615992        -2.504480
 O        -2.107315         0.258999        -2.007233
 C        -1.061881        -0.060426        -1.121201
 H         0.872653         0.877918         1.011074
 H        -3.109808         0.211214         0.497947
 H        -2.321923         0.625049         2.195373
 H        -0.814305         2.348188         1.329804
 H        -2.399264         3.898061         0.123762
 H        -2.741859         3.658913        -2.125427
 H        -2.613796         1.544388        -3.371471
 H        -0.955795         1.912257        -2.819399
 H        -0.782143        -1.170772        -1.226851
 H        -0.178548         0.418140        -1.479100
