19
Iteration:  3855
 O         0.215845         0.194166         0.889316
 C        -0.937054         0.526919         0.218018
 C        -2.114587         0.581260         1.185102
 C        -1.541578         1.853853         0.683609
 C        -2.275493         2.734748        -0.237833
 C        -2.271620         2.768709        -1.635330
 C        -1.710165         1.685553        -2.441626
 O        -2.126655         0.428388        -2.001837
 C        -1.192859        -0.144081        -1.087140
 H         1.026776         0.558667         0.555956
 H        -3.046713         0.268581         0.712415
 H        -2.007784         0.158058         2.203335
 H        -0.987512         2.377856         1.386434
 H        -2.588959         3.699242         0.229474
 H        -2.590456         3.676673        -2.135883
 H        -2.019877         1.694437        -3.456250
 H        -0.655270         1.762961        -2.523737
 H        -1.696345        -1.074099        -0.671051
 H        -0.160988        -0.241165        -1.501882
