19
Iteration:  4900
 O         0.145449        -0.044544         0.975589
 C        -0.959756         0.538660         0.285290
 C        -2.270660         0.647738         0.962026
 C        -1.550527         1.925489         0.756331
 C        -2.051015         2.951190        -0.170501
 C        -2.225588         2.772112        -1.506467
 C        -2.167982         1.578302        -2.526759
 O        -2.026062         0.217784        -1.959127
 C        -0.815510         0.075186        -1.199641
 H         0.893424         0.403771         0.660884
 H        -3.187255         0.470576         0.306532
 H        -2.430068         0.295425         2.079125
 H        -1.014941         2.234239         1.710088
 H        -1.960244         3.969081         0.157659
 H        -2.411358         3.746270        -2.132284
 H        -3.164721         1.554462        -2.905169
 H        -1.405330         1.807917        -3.339072
 H        -0.569873        -0.988256        -1.189408
 H         0.016284         0.779642        -1.589796
