19
Iteration:  4551
 O         0.061100        -0.070983         1.213896
 C        -0.919399         0.499329         0.252334
 C        -2.176505         0.715606         0.943403
 C        -1.353819         2.002563         0.666219
 C        -2.085817         2.923971        -0.218622
 C        -2.448527         2.688401        -1.500420
 C        -2.099800         1.668883        -2.515473
 O        -2.056221         0.271734        -2.038052
 C        -0.822819         0.029573        -1.222369
 H         0.874068        -0.050446         0.784403
 H        -3.124106         0.579101         0.450200
 H        -2.141711         0.257238         1.916717
 H        -0.734007         2.359111         1.467107
 H        -2.498625         3.741920         0.249173
 H        -3.006916         3.423905        -1.991528
 H        -2.858843         1.648418        -3.336321
 H        -1.119088         1.934377        -2.976374
 H        -0.530330        -1.063940        -1.298999
 H         0.122179         0.534319        -1.709634
