19
Iteration:  1990
 O         0.153907         0.141211         0.909228
 C        -0.981296         0.538106         0.240286
 C        -2.167906         0.570322         1.124766
 C        -1.557567         1.884839         0.700630
 C        -2.065088         2.942554        -0.191203
 C        -2.152524         2.766022        -1.563326
 C        -1.970705         1.586926        -2.508886
 O        -2.153069         0.274314        -1.958762
 C        -0.989006        -0.026725        -1.183302
 H         0.819824         0.842494         0.974275
 H        -3.098568         0.184438         0.602493
 H        -2.080831         0.350447         2.211837
 H        -1.067259         2.154878         1.654724
 H        -2.399824         3.886188         0.300370
 H        -2.734614         3.625434        -2.098964
 H        -2.539682         1.641907        -3.358028
 H        -1.010148         1.547646        -2.969580
 H        -1.039545        -1.164546        -0.921514
 H        -0.071806         0.058960        -1.812122
