19
Iteration:  1309charge 0 multiplicity 1
 O         0.063898        -0.097812         1.084049
 C        -0.951371         0.645022         0.265282
 C        -2.267632         0.507134         0.904913
 C        -1.503893         1.916039         0.746924
 C        -1.831356         2.833441        -0.369644
 C        -2.167706         2.687763        -1.622919
 C        -2.432860         1.550042        -2.408979
 O        -2.008756         0.326334        -1.860448
 C        -0.793948         0.296943        -1.187886
 H         0.763273         0.538958         1.233122
 H        -3.181217         0.356807         0.293625
 H        -2.231211         0.106902         1.916401
 H        -0.981302         2.313936         1.593669
 H        -1.671257         3.868421        -0.144335
 H        -2.346771         3.580267        -2.211959
 H        -3.497887         1.483436        -2.679662
 H        -1.848665         1.491918        -3.367866
 H        -0.316961        -0.652161        -1.252915
 H        -0.001810         0.930286        -1.661311
