19
Iteration:  2582charge 0 multiplicity 1
 O         0.161574         0.079749         1.018638
 C        -0.929097         0.463595         0.275667
 C        -2.280752         0.577426         0.950148
 C        -1.458655         1.831639         0.509433
 C        -1.939388         2.908354        -0.315960
 C        -2.306649         2.780328        -1.564697
 C        -2.176522         1.644898        -2.445244
 O        -2.075735         0.317582        -1.802193
 C        -0.865919         0.024751        -1.114454
 H         0.774878         0.869703         1.166199
 H        -3.148407         0.320430         0.262626
 H        -2.484699         0.193121         2.049915
 H        -0.877674         2.161256         1.495157
 H        -2.337276         3.811401         0.197914
 H        -2.633148         3.749565        -2.009811
 H        -2.955911         1.434951        -3.260150
 H        -1.256506         1.773385        -2.943990
 H        -0.685715        -1.067695        -1.149316
 H        -0.098712         0.540572        -1.585380
