19
Iteration:  4852
 O         0.243976         0.128136         1.155174
 C        -0.879730         0.436082         0.371559
 C        -2.250299         0.382676         0.900310
 C        -1.684222         1.745757         0.653370
 C        -1.887271         2.783182        -0.340268
 C        -2.092945         2.897147        -1.689268
 C        -2.290943         1.655997        -2.510384
 O        -2.149667         0.403395        -1.803624
 C        -0.919786         0.133060        -1.210142
 H         0.806408         0.937067         0.954426
 H        -3.113065         0.112763         0.320312
 H        -2.239091         0.072227         1.914145
 H        -1.278151         2.200780         1.546434
 H        -1.506655         3.719911         0.152461
 H        -2.253580         3.779795        -2.204534
 H        -3.243158         1.571418        -3.013864
 H        -1.480003         1.730353        -3.204085
 H        -0.770471        -0.982315        -1.263185
 H        -0.185321         0.863031        -1.696952
