19
Iteration:   751charge 0 multiplicity 1
 O         0.336900         0.286179         0.866593
 C        -0.983401         0.505716         0.263916
 C        -2.218629         0.551728         1.110357
 C        -1.520287         1.888968         0.686598
 C        -2.150708         2.808803        -0.234266
 C        -2.080629         2.822293        -1.566717
 C        -1.944555         1.653926        -2.461545
 O        -2.116924         0.340501        -1.952567
 C        -1.207523        -0.262185        -1.108019
 H         0.529330         1.244100         1.156466
 H        -3.046256         0.233491         0.473622
 H        -2.220322         0.072889         2.118239
 H        -0.823574         2.320587         1.381824
 H        -2.612708         3.642665         0.106148
 H        -2.359356         3.751187        -2.015796
 H        -2.869463         1.871656        -3.147277
 H        -1.014331         1.779160        -3.083487
 H        -1.480972        -1.385106        -1.165198
 H        -0.162203        -0.265531        -1.512944
