19
Iteration:  3137charge 0 multiplicity 1
 O         0.191575         0.144035         0.963580
 C        -0.993749         0.472582         0.308141
 C        -2.223973         0.656187         1.152451
 C        -1.420382         1.839882         0.669180
 C        -2.063321         2.870684        -0.259944
 C        -2.441726         2.732802        -1.513287
 C        -1.932176         1.686943        -2.417842
 O        -1.969060         0.358714        -2.100009
 C        -1.117224        -0.142301        -1.156332
 H         0.900933         0.439509         0.330611
 H        -3.090476         0.444408         0.557428
 H        -2.197839         0.303120         2.203185
 H        -0.627553         2.297351         1.288152
 H        -2.213603         3.853079         0.190501
 H        -2.927647         3.645174        -2.044614
 H        -2.558372         1.634654        -3.432835
 H        -0.884367         1.992088        -2.477079
 H        -1.425503        -1.175952        -1.055155
 H        -0.041180         0.040873        -1.544496
