19
Iteration:  3293charge 0 multiplicity 1
 O         0.022345        -0.141263         1.056683
 C        -0.938307         0.608203         0.232719
 C        -2.326748         0.611022         0.890043
 C        -1.517025         1.916903         0.724218
 C        -1.879843         2.940991        -0.289659
 C        -2.187581         2.770898        -1.558951
 C        -2.355222         1.499938        -2.297905
 O        -1.952418         0.183648        -1.933721
 C        -0.727722         0.285453        -1.268793
 H         0.858943         0.365967         1.148898
 H        -3.163591         0.506682         0.236571
 H        -2.421261         0.211179         1.926996
 H        -1.048188         2.281405         1.615447
 H        -1.868796         3.975262         0.027378
 H        -2.470862         3.628840        -2.063440
 H        -3.477595         1.428266        -2.514020
 H        -2.025467         1.718717        -3.331724
 H        -0.081530        -0.601160        -1.341552
 H        -0.044572         1.110468        -1.627356
