19
Iteration:  1333
 O         0.230832         0.047462         1.049996
 C        -0.967689         0.524854         0.276851
 C        -2.321995         0.520924         0.866561
 C        -1.632261         1.876593         0.783579
 C        -1.892318         2.996859        -0.252846
 C        -1.954042         2.750801        -1.590714
 C        -2.405667         1.515846        -2.438807
 O        -2.104919         0.219412        -1.913345
 C        -0.831276         0.197575        -1.215936
 H         0.811648         0.775465         1.196148
 H        -3.140354         0.339619         0.150436
 H        -2.475941         0.276535         1.954111
 H        -1.233072         2.001102         1.752976
 H        -1.837770         4.026860         0.021916
 H        -1.895275         3.708565        -2.239887
 H        -3.464969         1.589897        -2.353047
 H        -2.160250         1.325834        -3.510092
 H        -0.333056        -0.795083        -1.343830
 H        -0.035098         0.791951        -1.733281
