19
Iteration:  2249
 O         0.157209         0.110369         1.031475
 C        -0.996825         0.516605         0.320102
 C        -2.161032         0.621013         1.313863
 C        -1.427522         1.849607         0.708547
 C        -2.113732         2.817542        -0.277864
 C        -2.360298         2.780734        -1.629788
 C        -1.937810         1.661927        -2.587672
 O        -2.107097         0.326215        -2.098669
 C        -1.013769        -0.064654        -1.181600
 H         0.953264         0.566747         0.863318
 H        -3.183172         0.466367         0.877172
 H        -1.921366         0.310741         2.325429
 H        -0.689438         2.250835         1.432421
 H        -2.265446         3.818926         0.229678
 H        -2.873572         3.619767        -2.133015
 H        -2.492420         1.876682        -3.489213
 H        -0.936476         1.929237        -2.951898
 H        -1.103430        -1.150323        -1.160828
 H         0.019539         0.049181        -1.684823
