19
Iteration:  1213charge 0 multiplicity 1
 O         0.249964         0.065164         0.957699
 C        -0.988609         0.446076         0.312874
 C        -2.249652         0.621539         1.098093
 C        -1.421156         1.917024         0.583509
 C        -2.083007         2.954375        -0.192613
 C        -2.302779         2.774443        -1.520266
 C        -1.971171         1.630836        -2.518266
 O        -2.116149         0.259890        -2.000925
 C        -1.062883        -0.068660        -1.116825
 H         0.843511         0.900431         0.996132
 H        -3.101407         0.218617         0.503176
 H        -2.320955         0.667784         2.191525
 H        -0.808584         2.369832         1.329848
 H        -2.398568         3.901486         0.139849
 H        -2.759137         3.632053        -2.115006
 H        -2.575181         1.568438        -3.369659
 H        -0.941400         1.899046        -2.827922
 H        -0.771397        -1.186182        -1.208461
 H        -0.174547         0.430505        -1.484274
