19
Iteration:    19
 O         0.265224        -0.043984         1.054724
 C        -0.884860         0.441352         0.301355
 C        -2.341710         0.520184         0.847853
 C        -1.462105         1.885214         0.534556
 C        -2.018551         3.033635        -0.223853
 C        -2.416317         2.913490        -1.543064
 C        -2.186814         1.706650        -2.464278
 O        -1.975034         0.365656        -1.849299
 C        -0.740870         0.036812        -1.114435
 H         0.378773        -0.965213         0.847453
 H        -3.081643         0.148638         0.112853
 H        -2.547348         0.332390         1.924874
 H        -1.130736         2.048188         1.565755
 H        -2.760062         3.553659         0.391669
 H        -3.365572         3.292113        -1.859676
 H        -3.169083         1.552717        -2.885741
 H        -1.464550         1.815321        -3.281371
 H        -0.752140        -1.044153        -1.321480
 H         0.068471         0.603563        -1.611497
