19
Iteration:  1786
 O         0.229313         0.000441         1.138127
 C        -0.965841         0.479814         0.344720
 C        -2.261077         0.379331         0.941301
 C        -1.521888         1.867097         0.641458
 C        -1.859745         2.906274        -0.360284
 C        -2.229610         2.836039        -1.687537
 C        -2.220896         1.586936        -2.486863
 O        -2.144159         0.384205        -1.828762
 C        -0.925011         0.225497        -1.109989
 H         0.904714         0.369626         0.549184
 H        -2.968760        -0.008160         0.204307
 H        -2.260142         0.100665         2.004196
 H        -1.160849         2.281500         1.589989
 H        -1.867761         3.929903         0.020337
 H        -2.687014         3.693504        -2.329310
 H        -3.292062         1.573070        -3.005006
 H        -1.464468         1.552391        -3.295598
 H        -0.519692        -0.840037        -1.191810
 H        -0.053488         0.739802        -1.654049
