19
Iteration:  4549charge 0 multiplicity 1
 O         0.050230        -0.073683         1.211534
 C        -0.915890         0.493862         0.255865
 C        -2.182343         0.718925         0.953611
 C        -1.351501         2.014543         0.683697
 C        -2.074906         2.904309        -0.234198
 C        -2.445126         2.680687        -1.504208
 C        -2.100176         1.685731        -2.516890
 O        -2.057035         0.253904        -2.041638
 C        -0.799863         0.036658        -1.227187
 H         0.905035        -0.040825         0.723462
 H        -3.094293         0.588804         0.427085
 H        -2.205551         0.303840         1.923842
 H        -0.742437         2.370474         1.489407
 H        -2.500047         3.812450         0.332599
 H        -3.053472         3.409326        -2.024813
 H        -2.885129         1.673675        -3.287704
 H        -1.154305         1.901618        -2.908945
 H        -0.592277        -0.995488        -1.291937
 H         0.051080         0.589863        -1.800771
