19
Iteration:  4974
 O         0.104020        -0.002614         1.171972
 C        -0.845496         0.438441         0.252133
 C        -2.175364         0.619474         1.022703
 C        -1.421054         1.855964         0.547245
 C        -2.178400         2.847568        -0.243394
 C        -2.384298         2.903332        -1.568566
 C        -2.032883         1.735835        -2.553180
 O        -2.074757         0.355598        -1.945049
 C        -0.874690        -0.046245        -1.169529
 H         1.047342         0.080750         0.800651
 H        -3.094373         0.241623         0.483179
 H        -2.075468         0.312208         2.144978
 H        -0.961492         2.361810         1.487978
 H        -2.596772         3.649889         0.327901
 H        -2.996908         3.709239        -1.887637
 H        -2.907726         1.676484        -3.196827
 H        -1.012395         1.904585        -3.114140
 H        -0.841237        -1.144679        -1.186011
 H         0.100125         0.228532        -1.714082
