19
Iteration:  2924
 O         0.064049        -0.000446         1.159747
 C        -0.861755         0.558753         0.291912
 C        -2.277972         0.591509         0.859857
 C        -1.431596         1.853875         0.703072
 C        -1.856488         2.891703        -0.279822
 C        -2.291966         2.689471        -1.560626
 C        -2.366962         1.534339        -2.517368
 O        -2.027050         0.259390        -1.886116
 C        -0.785953         0.253532        -1.194793
 H         0.922670         0.214796         0.820361
 H        -2.987469         0.526834        -0.041076
 H        -2.714935         0.244970         1.867236
 H        -1.057237         2.224017         1.612669
 H        -1.763417         3.971677         0.121023
 H        -2.568809         3.675220        -2.088826
 H        -3.526695         1.458863        -2.829244
 H        -1.668819         1.768808        -3.346736
 H        -0.521038        -0.810769        -1.338886
 H        -0.046565         1.014578        -1.548535
