19
Iteration:  2484charge 0 multiplicity 1
 O         0.169185        -0.057750         1.044750
 C        -0.960572         0.548936         0.303879
 C        -2.301471         0.593879         0.896947
 C        -1.475203         1.932044         0.702435
 C        -1.895855         2.924821        -0.263290
 C        -2.184769         2.720693        -1.581238
 C        -2.375548         1.506484        -2.475137
 O        -2.014958         0.226266        -1.937882
 C        -0.808432         0.241595        -1.136728
 H         0.809287         0.671607         1.272293
 H        -3.332191         0.428170         0.449399
 H        -2.393714         0.207464         1.944099
 H        -1.217729         2.409013         1.720027
 H        -1.984042         3.974330         0.124541
 H        -2.386692         3.600850        -2.223079
 H        -3.409120         1.314844        -2.889901
 H        -1.855732         1.689241        -3.518440
 H        -0.415114        -0.811355        -1.217488
 H        -0.069011         1.104997        -1.509861
