19
Iteration:  3314charge 0 multiplicity 1
 O         0.057669        -0.176977         1.152855
 C        -0.903028         0.516416         0.311062
 C        -2.230631         0.613475         0.813090
 C        -1.458899         1.905629         0.810582
 C        -1.787083         2.918586        -0.296347
 C        -2.354962         2.705705        -1.552514
 C        -2.477480         1.483511        -2.565397
 O        -1.981752         0.320247        -1.934533
 C        -0.740205         0.355597        -1.176592
 H         0.925165         0.364948         1.062300
 H        -3.059803         0.550104         0.137378
 H        -2.544577         0.324030         1.849775
 H        -1.210597         2.422848         1.669574
 H        -1.604622         3.915561         0.095444
 H        -2.504072         3.632182        -2.076275
 H        -3.481104         1.311587        -2.986169
 H        -1.945709         1.748096        -3.512348
 H        -0.288801        -0.630403        -1.148228
 H         0.112508         0.987880        -1.481844
