19
Iteration:   298
 O         0.282861         0.035800         0.766997
 C        -0.926052         0.570724         0.240797
 C        -2.247108         0.510384         1.005791
 C        -1.480891         1.849386         0.600657
 C        -2.188173         2.846161        -0.246307
 C        -2.445513         2.822215        -1.586999
 C        -1.797455         1.739536        -2.456560
 O        -2.029894         0.457169        -1.800130
 C        -1.021395        -0.143653        -1.048226
 H         0.518157         0.340570         1.675923
 H        -3.052483         0.312983         0.286128
 H        -2.262729         0.351382         2.081783
 H        -1.196936         2.272131         1.515994
 H        -2.876871         3.415057         0.383856
 H        -3.113928         3.537753        -1.973031
 H        -2.447215         1.719845        -3.330661
 H        -0.735891         1.887493        -2.619419
 H        -1.373851        -1.113595        -0.755933
 H        -0.031586        -0.023234        -1.632964
