19
Iteration:   993charge 0 multiplicity 1
 O         0.116653         0.130830         0.958698
 C        -0.976293         0.560310         0.213643
 C        -2.214611         0.418044         1.005853
 C        -1.621425         1.896274         0.719566
 C        -1.925143         2.901114        -0.253025
 C        -2.171736         2.810160        -1.595580
 C        -2.213121         1.591455        -2.412350
 O        -2.074997         0.344380        -1.837585
 C        -0.855016         0.004545        -1.176253
 H         0.983347         0.488115         0.602815
 H        -3.027533         0.330649         0.293460
 H        -2.177217        -0.224401         1.863063
 H        -1.104225         2.242222         1.665030
 H        -1.901767         4.018359        -0.069059
 H        -2.068071         3.668640        -2.312471
 H        -3.128964         1.597580        -2.949108
 H        -1.485412         1.750790        -3.240266
 H        -0.867675        -1.097854        -0.891136
 H         0.018327         0.361348        -1.692080
