19
Iteration:  3035
 O         0.150295         0.160582         0.952271
 C        -0.982989         0.554261         0.167822
 C        -2.135584         0.604414         1.216796
 C        -1.518606         1.873120         0.659025
 C        -2.203008         2.816820        -0.221606
 C        -2.224266         2.872606        -1.561161
 C        -1.905866         1.687221        -2.412785
 O        -2.118152         0.327176        -2.007324
 C        -1.023194        -0.227115        -1.167378
 H         0.982369         0.490852         0.474460
 H        -2.999565         0.299534         0.616921
 H        -2.105632         0.401160         2.279837
 H        -0.699303         2.368542         1.252638
 H        -2.351944         3.734785         0.264115
 H        -2.650185         3.642458        -2.141930
 H        -2.448931         1.716274        -3.369785
 H        -0.881993         1.810901        -2.803601
 H        -1.231802        -1.285197        -1.084597
 H        -0.028543        -0.236202        -1.552752
