19
Iteration:   214
 O         0.241378        -0.053934         0.936255
 C        -0.953041         0.534239         0.375290
 C        -2.260195         0.671474         1.180112
 C        -1.526480         1.968465         0.811343
 C        -2.108857         2.853154        -0.200818
 C        -2.362810         2.689241        -1.497383
 C        -2.111895         1.664441        -2.538491
 O        -1.951087         0.342999        -2.166668
 C        -0.900312         0.060906        -1.199393
 H         0.749041        -0.401576         0.197832
 H        -3.179331         0.347074         0.670886
 H        -2.277183         0.286125         2.193189
 H        -1.253447         2.507545         1.705764
 H        -2.205639         3.867939         0.097104
 H        -2.804177         3.497854        -1.999854
 H        -2.812818         1.693666        -3.426701
 H        -1.124305         1.949709        -2.967641
 H        -0.916062        -1.035768        -1.104046
 H         0.052348         0.279225        -1.626067
