19
Iteration:  1292charge 0 multiplicity 1
 O         0.033244        -0.132730         1.143971
 C        -0.909163         0.425043         0.339738
 C        -2.238693         0.632980         0.932049
 C        -1.459063         1.865074         0.671141
 C        -1.787033         2.989951        -0.343724
 C        -2.371357         2.816052        -1.556836
 C        -2.404875         1.479005        -2.572461
 O        -2.010941         0.278184        -1.840492
 C        -0.713849         0.306898        -1.210162
 H         0.882577         0.322097         0.907660
 H        -3.147384         0.356215         0.409500
 H        -2.400581         0.291802         1.979909
 H        -1.165883         2.365830         1.617084
 H        -1.694184         4.017687         0.052786
 H        -2.636435         3.692050        -2.250914
 H        -3.412943         1.171353        -2.920339
 H        -1.766224         1.764713        -3.431654
 H        -0.151742        -0.694359        -1.506746
 H        -0.071118         1.113141        -1.596796
