19
Iteration:  2389
 O         0.141102        -0.029296         0.942177
 C        -0.929113         0.651525         0.311534
 C        -2.087100         0.509182         1.199818
 C        -1.606181         1.967706         0.735601
 C        -2.174021         2.869586        -0.275049
 C        -2.260378         2.736403        -1.619224
 C        -2.014930         1.611850        -2.555456
 O        -2.044915         0.346483        -1.983342
 C        -0.996315         0.003774        -1.114710
 H         0.978929         0.358960         0.499902
 H        -3.131104         0.366432         0.571460
 H        -2.096774         0.164969         2.303320
 H        -1.016203         2.496203         1.569506
 H        -2.196652         4.005665         0.033298
 H        -2.448734         3.738615        -2.082691
 H        -2.728632         1.523767        -3.386676
 H        -1.022539         1.728438        -3.149214
 H        -0.834479        -1.067810        -1.125814
 H        -0.047882         0.325176        -1.539703
