19
Iteration:  1298charge 0 multiplicity 1
 O         0.033754        -0.105950         1.111433
 C        -0.913012         0.457993         0.306765
 C        -2.260618         0.553509         0.933802
 C        -1.480349         1.911577         0.706641
 C        -1.774054         2.979110        -0.335705
 C        -2.323556         2.733772        -1.612354
 C        -2.389457         1.453162        -2.523584
 O        -2.020308         0.321013        -1.844834
 C        -0.723109         0.335621        -1.201762
 H         0.856779         0.331142         1.123719
 H        -3.202523         0.397370         0.366244
 H        -2.249566         0.237375         1.971480
 H        -1.079659         2.236642         1.652941
 H        -1.645317         4.006858        -0.016639
 H        -2.486082         3.654541        -2.156105
 H        -3.423094         1.230324        -2.809332
 H        -1.897779         1.856687        -3.458513
 H        -0.475711        -0.684971        -1.342610
 H        -0.057219         1.105159        -1.652788
