19
Iteration:  1444charge 0 multiplicity 1
 O         0.141257        -0.051757         0.960065
 C        -0.956497         0.536665         0.279429
 C        -2.231498         0.719703         1.128982
 C        -1.403037         1.934400         0.610015
 C        -2.026875         2.831153        -0.264138
 C        -2.509365         2.670897        -1.506483
 C        -1.965829         1.685060        -2.528613
 O        -1.977807         0.361221        -2.004677
 C        -1.020167        -0.055988        -1.090680
 H         0.964872         0.332723         0.516934
 H        -3.150994         0.630518         0.565483
 H        -2.139865         0.506421         2.150545
 H        -0.855181         2.458375         1.432862
 H        -2.351874         3.814821         0.173144
 H        -3.049787         3.583207        -1.800397
 H        -2.550731         1.818984        -3.402713
 H        -0.852763         1.961697        -2.796577
 H        -1.118493        -1.187572        -1.030682
 H         0.032022         0.179102        -1.417010
