19
Iteration:   356
 O         0.237021         0.386912         0.906983
 C        -1.071540         0.508968         0.318843
 C        -2.125613         0.348654         1.233571
 C        -1.686353         1.788474         0.751768
 C        -2.031448         2.802132        -0.248341
 C        -2.117903         2.754162        -1.576047
 C        -1.979920         1.695733        -2.626522
 O        -2.075628         0.415033        -2.025554
 C        -1.073130        -0.037882        -1.147057
 H         0.478342        -0.547491         0.770610
 H        -3.113542        -0.036386         1.022456
 H        -1.875542         0.125116         2.270245
 H        -1.082002         2.218299         1.550793
 H        -2.162593         3.823191         0.138790
 H        -2.375783         3.724035        -2.041474
 H        -2.794130         1.708762        -3.409467
 H        -1.109256         2.022766        -3.171991
 H        -1.348762        -1.113009        -1.048136
 H         0.017096        -0.143285        -1.442173
