19
Iteration:  2517charge 0 multiplicity 1
 O         0.125462        -0.015481         1.072874
 C        -1.004321         0.545551         0.283866
 C        -2.356247         0.550468         1.015179
 C        -1.502206         1.874745         0.741656
 C        -1.791025         2.920409        -0.320779
 C        -2.217281         2.712350        -1.603148
 C        -2.377488         1.525748        -2.551001
 O        -1.999175         0.216430        -1.862820
 C        -0.781348         0.312362        -1.188254
 H         0.888198         0.224696         0.589667
 H        -3.310254         0.510931         0.416083
 H        -2.118346         0.207749         2.077952
 H        -1.080337         2.370297         1.690257
 H        -2.014650         3.922559         0.134019
 H        -2.514732         3.598834        -2.197736
 H        -3.426125         1.343970        -2.956921
 H        -1.583042         1.672489        -3.411302
 H        -0.204161        -0.633662        -1.394714
 H        -0.112649         1.176033        -1.607261
