19
Iteration:   253
 O         0.096795        -0.029722         1.028220
 C        -0.963942         0.460916         0.198046
 C        -2.179136         0.710179         1.106933
 C        -1.349057         1.914443         0.573252
 C        -2.204508         2.827302        -0.180025
 C        -2.466840         2.749057        -1.457425
 C        -1.942218         1.735263        -2.426006
 O        -2.024258         0.326209        -2.031363
 C        -0.858484        -0.099629        -1.303775
 H         0.581729         0.767546         1.239312
 H        -3.259098         0.705573         0.858934
 H        -1.863247         0.475497         2.132236
 H        -0.614697         2.462424         1.195659
 H        -2.751095         3.591837         0.442438
 H        -3.175702         3.508277        -1.911311
 H        -2.510356         1.794327        -3.326012
 H        -0.932416         2.104555        -2.480910
 H        -1.002827        -1.178596        -1.310186
 H         0.121521         0.363087        -1.706534
