19
Iteration:  1265
 O         0.049720        -0.142524         1.194460
 C        -0.873562         0.497497         0.310071
 C        -2.230340         0.710348         0.880642
 C        -1.304236         1.900737         0.602458
 C        -1.984706         2.924557        -0.320278
 C        -2.412234         2.732455        -1.555343
 C        -2.274497         1.560955        -2.430762
 O        -2.009556         0.305519        -1.929754
 C        -0.784534         0.231460        -1.164114
 H         0.864933        -0.311884         0.677780
 H        -3.134575         0.680602         0.275037
 H        -2.475204         0.350685         1.861020
 H        -0.834267         2.464616         1.405881
 H        -2.263781         3.889698         0.119172
 H        -2.944892         3.409215        -2.157389
 H        -3.257735         1.385985        -2.874708
 H        -1.593829         1.893374        -3.270200
 H        -0.546787        -0.836825        -1.217183
 H         0.101311         0.684149        -1.693335
