19
Iteration:  4821
 O         0.210115         0.030325         0.983844
 C        -0.947301         0.501006         0.322745
 C        -2.272663         0.385547         0.882726
 C        -1.623807         1.841581         0.681989
 C        -1.947844         2.911924        -0.283437
 C        -2.070211         2.808066        -1.634473
 C        -2.221368         1.551373        -2.558421
 O        -2.114038         0.383304        -1.719292
 C        -0.896313         0.193249        -1.114509
 H         0.696807         0.864663         1.084038
 H        -3.197081         0.132611         0.274405
 H        -2.372824         0.077465         1.963632
 H        -1.282517         2.214684         1.705723
 H        -1.748324         3.912255         0.140438
 H        -2.476689         3.643379        -2.153765
 H        -3.118937         1.459014        -3.107572
 H        -1.393064         1.594553        -3.437385
 H        -0.618347        -0.832003        -1.394025
 H        -0.086300         0.917082        -1.636522
