19
Iteration:  2740
 O         0.224108         0.094566         0.906721
 C        -1.052753         0.512292         0.287588
 C        -2.222571         0.604575         1.236185
 C        -1.429868         1.872404         0.608655
 C        -2.094352         2.886581        -0.223166
 C        -2.452207         2.775449        -1.557859
 C        -1.836372         1.687639        -2.566557
 O        -2.040776         0.282386        -1.995834
 C        -1.085332        -0.092544        -1.106713
 H         0.784307         0.864969         0.842891
 H        -3.206988         0.526631         0.724052
 H        -2.086950         0.162628         2.273361
 H        -0.744943         2.303700         1.301846
 H        -2.299438         3.914242         0.233236
 H        -2.921873         3.688810        -2.122198
 H        -2.180692         1.624787        -3.593189
 H        -0.789282         1.861202        -2.498895
 H        -1.170384        -1.180471        -1.101971
 H        -0.054961         0.160109        -1.552463
