19
Iteration:  2610
 O         0.220760         0.055627         0.956504
 C        -0.921734         0.502020         0.313319
 C        -2.199216         0.595980         1.132574
 C        -1.561041         1.946762         0.757295
 C        -2.049525         2.920250        -0.262978
 C        -2.257909         2.706235        -1.599602
 C        -2.023174         1.611468        -2.511818
 O        -2.107717         0.318063        -1.997763
 C        -1.022678        -0.020876        -1.173138
 H         0.938620         0.781787         0.982464
 H        -3.046927         0.402170         0.473389
 H        -2.244125         0.162707         2.118751
 H        -1.175380         2.396022         1.675275
 H        -2.317980         3.963640         0.033586
 H        -2.802562         3.575035        -2.046610
 H        -2.671232         1.500452        -3.356773
 H        -0.884604         1.721539        -2.930871
 H        -0.934773        -1.133359        -1.169712
 H        -0.063061         0.424377        -1.764525
