19
Iteration:  2455
 O         0.122091         0.017260         1.197500
 C        -0.841484         0.558449         0.232690
 C        -2.202892         0.486402         0.838002
 C        -1.523362         1.924722         0.655811
 C        -1.924637         2.916140        -0.322986
 C        -2.295523         2.819146        -1.576017
 C        -2.351700         1.620904        -2.455638
 O        -2.034777         0.272038        -1.865391
 C        -0.830566         0.045357        -1.241378
 H         0.737569         0.674454         1.449572
 H        -3.173305         0.360984         0.325328
 H        -2.219514         0.156777         1.934726
 H        -1.259066         2.324100         1.613184
 H        -1.697092         3.924871         0.127031
 H        -2.461972         3.752405        -2.131436
 H        -3.324319         1.367557        -2.832957
 H        -1.669662         1.809162        -3.265945
 H        -0.550870        -0.991118        -1.190615
 H         0.048727         0.452560        -1.682587
