19
Iteration:  4616
 O         0.258320         0.173991         0.891865
 C        -0.953326         0.555070         0.304714
 C        -2.218689         0.438745         1.117716
 C        -1.602501         1.843668         0.698219
 C        -2.142395         2.792648        -0.274686
 C        -2.124242         2.766823        -1.614176
 C        -1.851272         1.666091        -2.476291
 O        -2.233250         0.378085        -1.933836
 C        -1.034072        -0.015769        -1.120009
 H         0.935668         0.879436         0.751284
 H        -3.034004         0.013850         0.529795
 H        -2.248024         0.258860         2.207049
 H        -1.224453         2.309792         1.608603
 H        -2.478737         3.723840         0.082797
 H        -2.443545         3.672164        -2.022704
 H        -2.461802         1.855140        -3.382637
 H        -0.812197         1.623551        -2.699983
 H        -1.139212        -1.078043        -1.090127
 H        -0.195502         0.260945        -1.717507
