19
Iteration:  2378charge 0 multiplicity 1
 O         0.172239         0.012117         0.919220
 C        -0.988677         0.543531         0.302527
 C        -2.140123         0.607298         1.173074
 C        -1.563766         1.953385         0.769575
 C        -2.172537         2.835000        -0.276549
 C        -2.230240         2.816286        -1.622444
 C        -1.975393         1.629252        -2.538653
 O        -2.050956         0.307033        -2.029224
 C        -0.966265        -0.036755        -1.120995
 H         0.962934         0.576943         0.627899
 H        -3.269741         0.248166         1.048225
 H        -1.673885         0.331171         2.171599
 H        -1.138482         2.540540         1.657005
 H        -2.550021         3.798190         0.268156
 H        -2.733773         3.630118        -2.195009
 H        -2.796426         1.683412        -3.270115
 H        -0.958005         1.779821        -3.066329
 H        -1.142611        -1.107208        -0.935688
 H        -0.012243         0.152278        -1.567553
