19
Iteration:  2969charge 0 multiplicity 1
 O         0.230341        -0.022190         1.031567
 C        -0.951423         0.492166         0.340238
 C        -2.285337         0.491300         0.991320
 C        -1.522933         1.868707         0.581892
 C        -2.056793         2.901111        -0.335478
 C        -2.207094         2.841303        -1.636844
 C        -2.198574         1.589452        -2.518643
 O        -2.088941         0.396898        -1.803053
 C        -0.813760         0.055533        -1.119207
 H         0.819784         0.713058         1.055321
 H        -3.205865         0.180445         0.450211
 H        -2.281961         0.317883         2.139745
 H        -1.087892         2.239319         1.514775
 H        -2.048090         3.904723         0.128651
 H        -2.572833         3.793934        -2.112777
 H        -3.254469         1.640606        -3.098203
 H        -1.407988         1.665248        -3.307208
 H        -0.562430        -1.032652        -1.139927
 H        -0.042800         0.620980        -1.698907
