19
Iteration:   614
 O         0.147478         0.204088         0.880793
 C        -1.021800         0.550122         0.216969
 C        -2.283726         0.630504         1.044627
 C        -1.472241         1.833822         0.688686
 C        -2.022802         2.886929        -0.182767
 C        -2.283083         2.731845        -1.477533
 C        -2.014702         1.548002        -2.494628
 O        -2.064914         0.284598        -1.915784
 C        -0.898400         0.058011        -1.140064
 H         0.278845        -0.705642         0.690690
 H        -3.231718         0.450989         0.549037
 H        -2.117901         0.158640         2.035850
 H        -0.854944         2.244196         1.516617
 H        -2.297625         3.856326         0.398650
 H        -2.574768         3.612749        -2.039782
 H        -2.711792         1.435635        -3.308833
 H        -0.984965         1.662045        -3.066180
 H        -0.733368        -1.020866        -1.309916
 H         0.050988         0.544254        -1.546332
