19
Iteration:  2541charge 0 multiplicity 1
 O         0.097008        -0.035618         1.188526
 C        -0.833138         0.577488         0.306009
 C        -2.184334         0.554953         0.948409
 C        -1.530928         1.893811         0.661727
 C        -1.961676         2.905209        -0.318703
 C        -2.240579         2.787562        -1.626098
 C        -2.364944         1.579330        -2.468830
 O        -2.089135         0.275112        -1.941786
 C        -0.810731         0.151813        -1.150500
 H         1.040445         0.081736         0.914368
 H        -2.778752         0.276738         0.102360
 H        -2.189795         0.257478         2.006028
 H        -1.268024         2.461366         1.490651
 H        -1.835308         3.891929         0.156908
 H        -2.353536         3.592318        -2.322786
 H        -3.377169         1.452766        -2.894649
 H        -1.565793         1.773561        -3.364278
 H        -0.587139        -0.900875        -1.341420
 H         0.084232         0.793358        -1.685566
