19
Iteration:  3808
 O         0.273882         0.222476         0.901385
 C        -1.007132         0.441250         0.283663
 C        -2.225318         0.462097         1.137382
 C        -1.626462         1.824207         0.575300
 C        -2.109855         2.842111        -0.291622
 C        -2.241774         2.825410        -1.621557
 C        -1.879500         1.684849        -2.474964
 O        -2.108116         0.398802        -1.808686
 C        -1.075598        -0.120134        -1.130818
 H         0.852483         0.781231         0.447901
 H        -3.112294         0.097526         0.615611
 H        -2.378584         0.356827         2.199181
 H        -0.990038         2.333506         1.358517
 H        -2.226252         3.702903         0.207023
 H        -2.274574         3.790528        -2.129001
 H        -2.241326         1.671157        -3.495639
 H        -0.812946         1.673575        -2.634559
 H        -1.187566        -1.230093        -1.080351
 H        -0.114389         0.286413        -1.475815
