19
Iteration:   119charge 0 multiplicity 1
 O         0.223034         0.055666         0.886788
 C        -0.930807         0.596586         0.371799
 C        -2.220466         0.320928         0.985003
 C        -1.718879         1.804024         0.701250
 C        -1.800406         2.921986        -0.264781
 C        -2.209115         2.887265        -1.620882
 C        -2.344685         1.667100        -2.484697
 O        -1.994130         0.318001        -1.941958
 C        -0.827864         0.189215        -1.084635
 H        -0.063269        -0.367413         1.676493
 H        -3.027380        -0.191604         0.478664
 H        -2.191646         0.015815         2.020679
 H        -1.539504         2.211351         1.686996
 H        -2.031569         3.843231         0.240773
 H        -2.468396         3.796626        -2.097989
 H        -3.324428         1.479850        -2.908583
 H        -1.690969         1.834296        -3.461434
 H        -0.642792        -0.896780        -1.196883
 H         0.140741         0.576693        -1.576201
