19
Iteration:   191charge 0 multiplicity 1
 O         0.274568         0.037979         1.002809
 C        -0.940973         0.499643         0.329617
 C        -2.220155         0.437304         1.057694
 C        -1.607165         1.871700         0.715944
 C        -2.048258         2.957251        -0.263659
 C        -2.300876         2.889598        -1.547230
 C        -2.154233         1.676306        -2.524549
 O        -2.040014         0.289862        -2.000558
 C        -0.891159         0.106129        -1.136684
 H         0.464818        -0.827869         0.575798
 H        -3.158566         0.100673         0.583701
 H        -2.232706         0.132108         2.124527
 H        -1.111421         2.339422         1.531821
 H        -2.216373         3.904427         0.239771
 H        -2.435871         3.769736        -2.160910
 H        -3.000909         1.566107        -3.256641
 H        -1.256309         1.823933        -3.176793
 H        -0.557786        -0.940986        -1.172638
 H        -0.105869         0.556260        -1.672127
