19
Iteration:  2298
 O         0.257907        -0.010894         0.930703
 C        -0.911453         0.546404         0.218632
 C        -2.135132         0.704084         1.037089
 C        -1.523108         2.019876         0.641395
 C        -2.320462         2.886876        -0.236737
 C        -2.396155         2.814134        -1.601376
 C        -1.787111         1.691503        -2.427377
 O        -2.099637         0.301214        -1.855658
 C        -1.067776        -0.203134        -1.126454
 H         1.121190        -0.014817         0.389835
 H        -3.043433         0.472968         0.467757
 H        -2.116146         0.323224         2.065057
 H        -0.926590         2.596881         1.355068
 H        -2.887202         3.555693         0.351982
 H        -2.634110         3.663869        -2.211846
 H        -2.040747         1.786366        -3.519753
 H        -0.670027         1.904487        -2.361218
 H        -1.336424        -1.299133        -0.952666
 H        -0.124299        -0.230047        -1.622259
