19
Iteration:  4131charge 0 multiplicity 1
 O        -0.001382        -0.095982         1.120608
 C        -1.021097         0.483816         0.292532
 C        -2.204601         0.742022         1.000715
 C        -1.320409         1.974083         0.680348
 C        -1.995742         2.870146        -0.274070
 C        -2.464837         2.744440        -1.533467
 C        -2.213527         1.548044        -2.455228
 O        -1.901882         0.259982        -1.991154
 C        -0.805559         0.134816        -1.241766
 H         0.753425         0.028213         0.637372
 H        -3.099527         0.884718         0.421486
 H        -2.305383         0.233053         1.926403
 H        -0.671576         2.433382         1.384343
 H        -2.290823         3.777527         0.321232
 H        -2.963720         3.667664        -1.962816
 H        -3.007936         1.382065        -3.247954
 H        -1.253039         1.928900        -3.165648
 H        -0.251514        -0.958355        -1.244436
 H         0.033657         0.939095        -1.541407
