19
Iteration:  2500
 O         0.101686        -0.012195         0.955054
 C        -0.992213         0.492923         0.322131
 C        -2.356879         0.684594         1.006120
 C        -1.496751         1.861452         0.760233
 C        -1.930940         2.800465        -0.316951
 C        -2.208664         2.696919        -1.596467
 C        -2.327031         1.479253        -2.460419
 O        -1.991213         0.257717        -1.876805
 C        -0.733344         0.326766        -1.177417
 H         0.813149         0.600745         0.786169
 H        -3.089242         0.621771         0.270740
 H        -2.568513         0.384384         2.017924
 H        -0.902445         2.195391         1.515308
 H        -1.649702         3.806103        -0.075930
 H        -2.282365         3.653530        -2.082899
 H        -3.366553         1.432216        -2.692795
 H        -1.742089         1.656918        -3.285738
 H        -0.168509        -0.563817        -1.314464
 H        -0.079315         1.081953        -1.609210
