19
Iteration:  1056charge 0 multiplicity 1
 O         0.052898        -0.065516         0.953887
 C        -1.004097         0.506613         0.255837
 C        -2.151610         0.724030         1.228518
 C        -1.267898         1.895570         0.462363
 C        -2.134716         2.804090        -0.277426
 C        -2.549891         2.702685        -1.585594
 C        -1.895556         1.724817        -2.512922
 O        -2.023039         0.420948        -1.906235
 C        -0.923300        -0.058863        -1.145449
 H         0.843735         0.515454         0.882655
 H        -3.217545         0.559976         0.916896
 H        -1.853443         0.492802         2.246714
 H        -0.964476         2.467712         1.395446
 H        -2.427959         3.591068         0.498419
 H        -3.366807         3.445766        -1.819870
 H        -2.481921         1.629446        -3.424166
 H        -0.811079         1.961233        -2.703511
 H        -1.061884        -1.151108        -1.164497
 H         0.170345         0.129718        -1.479874
