19
Iteration:  1152
 O         0.350598         0.174425         0.931207
 C        -0.907758         0.520823         0.272755
 C        -2.119604         0.508009         1.205504
 C        -1.682324         1.837314         0.624389
 C        -2.279003         2.889169        -0.340575
 C        -2.079171         2.981676        -1.691707
 C        -1.808274         1.672914        -2.363874
 O        -2.214294         0.350603        -1.920870
 C        -1.206400        -0.236614        -1.126650
 H         1.083745         0.475037         0.262642
 H        -3.044770        -0.110922         0.972744
 H        -1.813474         0.335127         2.253402
 H        -1.038098         2.473470         1.287063
 H        -2.928437         3.553280         0.280257
 H        -2.571623         3.817862        -2.275043
 H        -2.221809         1.795908        -3.448098
 H        -0.716690         1.550635        -2.424746
 H        -1.442137        -1.263797        -0.933749
 H        -0.314822        -0.179337        -1.875149
