19
Iteration:  1873
 O         0.182518         0.034527         0.977074
 C        -0.989677         0.509087         0.282700
 C        -2.155040         0.666224         1.152425
 C        -1.377076         1.880082         0.601883
 C        -2.144132         2.890974        -0.242087
 C        -2.468399         2.736999        -1.545560
 C        -1.900090         1.673297        -2.511886
 O        -2.005275         0.370568        -2.014753
 C        -1.092442        -0.146634        -1.095339
 H         0.935080         0.621265         0.614657
 H        -3.061593         0.480389         0.557342
 H        -2.277273         0.462438         2.190141
 H        -0.788021         2.321960         1.434410
 H        -2.546648         3.745820         0.341627
 H        -2.830827         3.752123        -1.933539
 H        -2.446190         1.769911        -3.540826
 H        -0.877322         2.011001        -2.876552
 H        -1.237418        -1.183564        -1.132783
 H         0.000397        -0.068118        -1.535288
