19
Iteration:   592
 O         0.317037         0.176187         0.953257
 C        -0.947309         0.535078         0.306029
 C        -2.273070         0.487890         1.024469
 C        -1.546172         1.851709         0.780506
 C        -2.100651         2.797626        -0.272602
 C        -2.027471         2.808717        -1.613707
 C        -2.166094         1.624838        -2.528262
 O        -2.115052         0.301630        -1.891140
 C        -0.956785         0.103593        -1.203518
 H         0.132958        -0.624171         1.571071
 H        -3.186478         0.433023         0.434911
 H        -2.464040         0.310192         2.094334
 H        -1.055430         2.350800         1.621629
 H        -2.540673         3.768900         0.142339
 H        -2.472653         3.681191        -2.063939
 H        -3.068106         1.653373        -3.127618
 H        -1.310253         1.641114        -3.341623
 H        -0.840250        -0.999855        -1.333429
 H        -0.020118         0.551224        -1.684436
