19
Iteration:  3156
 O         0.238950         0.071517         0.987184
 C        -0.949836         0.521837         0.290776
 C        -2.250927         0.525396         1.110248
 C        -1.507511         1.902876         0.682238
 C        -2.000394         2.948771        -0.240145
 C        -2.377103         2.784875        -1.508075
 C        -1.950714         1.716841        -2.600837
 O        -2.095231         0.309426        -2.040818
 C        -1.010646        -0.104975        -1.082970
 H         0.964591         0.398358         0.470926
 H        -3.150314         0.211437         0.665913
 H        -2.155668         0.488201         2.181144
 H        -1.142550         2.369146         1.679402
 H        -2.376277         3.846563         0.171432
 H        -2.989219         3.620576        -1.862953
 H        -2.653754         1.728088        -3.388815
 H        -0.897149         1.753428        -3.057669
 H        -1.156566        -1.180782        -0.995155
 H         0.009209         0.041673        -1.600186
