19
Iteration:  1083charge 0 multiplicity 1
 O         0.177197        -0.093566         1.017372
 C        -0.944138         0.525083         0.224826
 C        -2.045001         0.824098         1.191634
 C        -1.415594         1.963891         0.659681
 C        -2.282871         2.901307        -0.260701
 C        -2.480063         2.766942        -1.541536
 C        -1.841534         1.679137        -2.413793
 O        -2.035272         0.298606        -2.136972
 C        -1.121429        -0.116217        -1.149233
 H         1.000379         0.354548         0.718383
 H        -2.883164         0.412782         0.674630
 H        -1.869135         0.322290         2.176201
 H        -0.621171         2.452775         1.160180
 H        -2.654271         3.708171         0.306818
 H        -3.194285         3.443712        -2.022335
 H        -2.198524         1.732845        -3.469300
 H        -0.744905         1.883721        -2.408430
 H        -1.336128        -1.231458        -1.070919
 H        -0.023026         0.026898        -1.464802
