19
Iteration:  3369
 O         0.082675        -0.011845         1.050473
 C        -0.909305         0.562696         0.218220
 C        -2.270213         0.562507         0.981437
 C        -1.502145         1.876554         0.659289
 C        -2.038513         2.898018        -0.232434
 C        -2.210868         2.812866        -1.603065
 C        -2.191510         1.604858        -2.408505
 O        -2.082793         0.298075        -1.875156
 C        -0.778124         0.075119        -1.218262
 H         0.890043         0.503511         0.877942
 H        -3.065906         0.291654         0.295556
 H        -2.091756         0.043619         1.917171
 H        -1.053194         2.321576         1.573026
 H        -2.131312         3.924084         0.149866
 H        -2.397974         3.623165        -2.288934
 H        -3.190905         1.552336        -2.858728
 H        -1.376265         1.792008        -3.151602
 H        -0.657051        -1.016016        -1.157173
 H         0.064668         0.588335        -1.693997
