19
Iteration:  3413charge 0 multiplicity 1
 O         0.294981         0.153741         0.920137
 C        -1.011942         0.427233         0.306594
 C        -2.269571         0.498401         1.125974
 C        -1.571617         1.840907         0.672752
 C        -2.017456         2.883179        -0.274173
 C        -2.283210         2.804111        -1.597680
 C        -1.934693         1.704041        -2.501836
 O        -2.146597         0.371913        -1.951637
 C        -1.022029        -0.101420        -1.116154
 H         0.879127         0.885244         0.573936
 H        -3.194874         0.228683         0.598306
 H        -2.247215         0.270452         2.182265
 H        -0.957479         2.302635         1.506465
 H        -2.387529         3.789504         0.182444
 H        -2.503256         3.749916        -1.992633
 H        -2.472846         1.832625        -3.441186
 H        -0.817025         1.753479        -2.686576
 H        -1.082546        -1.198740        -1.013591
 H        -0.082780         0.215792        -1.570663
