19
Iteration:  2571charge 0 multiplicity 1
 O         0.128256         0.057283         1.073605
 C        -0.935921         0.477618         0.276608
 C        -2.229257         0.555093         0.892724
 C        -1.450743         1.839456         0.580080
 C        -1.961554         2.918475        -0.303034
 C        -2.284813         2.817647        -1.615313
 C        -2.194851         1.557423        -2.440262
 O        -2.040529         0.391895        -1.779988
 C        -0.849001         0.001075        -1.169572
 H         0.727450         0.776016         1.116113
 H        -3.048185         0.399543         0.122384
 H        -2.377410         0.197598         2.004868
 H        -1.080853         2.354051         1.567479
 H        -2.097780         3.874678         0.272305
 H        -2.948848         3.523370        -2.165942
 H        -3.264726         1.578993        -2.885152
 H        -1.515802         1.705694        -3.272136
 H        -0.756124        -1.100134        -1.300840
 H         0.023324         0.418957        -1.583118
