19
Iteration:  1857
 O         0.226030         0.086938         0.994441
 C        -0.988233         0.465243         0.325587
 C        -2.285628         0.648101         1.129882
 C        -1.431591         1.866074         0.652945
 C        -1.981226         2.807841        -0.299647
 C        -2.459627         2.723422        -1.490877
 C        -1.954539         1.680865        -2.511217
 O        -2.064010         0.363889        -2.062430
 C        -1.024462        -0.048326        -1.164504
 H         0.905065         0.760741         0.851175
 H        -3.302892         0.584403         0.665789
 H        -2.049983         0.470641         2.227500
 H        -0.831964         2.338502         1.417137
 H        -2.045448         3.829556         0.098180
 H        -3.003486         3.473841        -1.959323
 H        -2.521938         1.732087        -3.379575
 H        -0.840936         1.979617        -2.701055
 H        -1.189361        -1.199776        -1.046088
 H        -0.025703         0.013809        -1.573810
