19
Iteration:  1607
 O         0.239048         0.049972         0.929202
 C        -0.943169         0.563110         0.339477
 C        -2.345488         0.515913         0.989914
 C        -1.474068         1.900460         0.702060
 C        -1.929900         2.929056        -0.249854
 C        -2.239175         2.762664        -1.585105
 C        -2.093786         1.574816        -2.540948
 O        -2.109548         0.335308        -1.891742
 C        -0.966365        -0.007433        -1.098867
 H         0.927152         0.783984         0.798914
 H        -3.078613         0.390782         0.241008
 H        -2.466484         0.248568         2.026745
 H        -1.154446         2.297111         1.716131
 H        -2.133604         3.925682         0.171593
 H        -2.720694         3.650912        -1.959412
 H        -3.021917         1.437844        -3.259414
 H        -1.187285         1.680685        -3.209858
 H        -1.039700        -1.063348        -1.106101
 H        -0.103925         0.535234        -1.474778
