19
Iteration:  3307
 O         0.029364        -0.155059         1.089902
 C        -0.910542         0.502034         0.345740
 C        -2.278703         0.645245         0.839322
 C        -1.472637         1.938083         0.799963
 C        -1.781259         2.968648        -0.253073
 C        -2.315681         2.700672        -1.572704
 C        -2.478252         1.516595        -2.542988
 O        -1.971549         0.259049        -1.932314
 C        -0.668015         0.313063        -1.178643
 H         0.820545         0.373340         1.092235
 H        -3.076919         0.354258         0.153383
 H        -2.360512         0.104576         1.753715
 H        -1.206619         2.401544         1.859134
 H        -1.722203         4.012367         0.069506
 H        -2.509718         3.603716        -2.134431
 H        -3.606286         1.274732        -2.788377
 H        -1.848880         1.725631        -3.422420
 H        -0.281984        -0.736666        -1.398382
 H        -0.084131         1.118967        -1.727654
