19
Iteration:  2055
 O         0.056799        -0.073394         1.205711
 C        -0.875686         0.527878         0.261523
 C        -2.163830         0.530716         0.927393
 C        -1.448618         1.852557         0.606822
 C        -1.956730         2.976103        -0.344216
 C        -2.272451         2.848497        -1.653854
 C        -2.319531         1.567416        -2.423159
 O        -2.048261         0.299661        -1.840690
 C        -0.790693         0.174071        -1.239030
 H         0.915933         0.250882         0.995300
 H        -3.067051         0.152722         0.394121
 H        -2.063741         0.304165         2.041664
 H        -1.192748         2.325094         1.588927
 H        -2.462122         3.854699         0.143127
 H        -2.754994         3.617228        -2.375675
 H        -3.319062         1.544957        -2.803473
 H        -1.504395         1.856818        -3.311566
 H        -0.697551        -0.998556        -1.209667
 H         0.127141         0.659757        -1.698407
