19
Iteration:  3751charge 0 multiplicity 1
 O         0.059562        -0.082658         1.106124
 C        -0.913602         0.538368         0.271923
 C        -2.222643         0.646767         0.958149
 C        -1.472325         1.891921         0.619898
 C        -2.047317         2.925817        -0.232473
 C        -2.326649         2.767886        -1.583710
 C        -2.252307         1.573187        -2.449080
 O        -1.931118         0.310789        -1.997616
 C        -0.802455         0.112707        -1.157474
 H         1.040996         0.263198         1.106232
 H        -3.205359         0.454066         0.519539
 H        -2.089186         0.414982         2.019324
 H        -0.915075         2.432668         1.516291
 H        -2.156280         3.966183         0.219515
 H        -2.895480         3.606546        -2.192673
 H        -3.268913         1.418731        -2.932087
 H        -1.538845         1.757117        -3.211641
 H        -0.593355        -0.935951        -1.155721
 H         0.199095         0.405933        -1.529252
