19
Iteration:  2115charge 0 multiplicity 1
 O         0.149379        -0.051315         0.963459
 C        -1.026251         0.510121         0.361167
 C        -2.353023         0.634293         0.936748
 C        -1.536675         1.927121         0.743764
 C        -1.787916         2.991480        -0.303299
 C        -2.244940         2.771063        -1.584515
 C        -2.353270         1.566812        -2.420183
 O        -1.954774         0.119683        -1.994023
 C        -0.782180         0.233927        -1.109952
 H         0.757924         0.652381         1.130022
 H        -3.192779         0.331796         0.285365
 H        -2.412557         0.178783         1.919108
 H        -1.173779         2.181582         1.714096
 H        -1.631842         3.978340         0.059752
 H        -2.409621         3.625550        -2.191994
 H        -3.444872         1.327705        -2.518434
 H        -2.082530         1.671994        -3.563835
 H        -0.361418        -0.729921        -1.138679
 H         0.038441         0.978185        -1.469824
