19
Iteration:  1047
 O         0.107423        -0.047720         0.977343
 C        -1.017610         0.438527         0.252259
 C        -2.173158         0.774115         1.145421
 C        -1.309639         1.868063         0.543858
 C        -2.110347         2.745212        -0.301025
 C        -2.508293         2.723065        -1.552990
 C        -1.958765         1.697852        -2.503824
 O        -1.998430         0.438088        -1.894489
 C        -0.973946        -0.009571        -1.119725
 H         0.929401         0.474974         0.803835
 H        -3.139061         0.501450         0.698422
 H        -2.082583         0.587801         2.172305
 H        -0.521297         2.337177         1.242555
 H        -2.562141         3.627706         0.245683
 H        -3.280341         3.446249        -1.894135
 H        -2.471182         1.635237        -3.420572
 H        -0.885239         1.983906        -2.789780
 H        -0.909869        -1.148713        -1.094520
 H        -0.019014         0.376693        -1.634854
