19
Iteration:  2481
 O         0.164587        -0.053722         1.055424
 C        -0.937140         0.557373         0.315972
 C        -2.299848         0.580605         0.910400
 C        -1.487052         1.935152         0.704737
 C        -1.881554         2.951324        -0.281235
 C        -2.187912         2.744511        -1.575003
 C        -2.376372         1.477671        -2.478004
 O        -2.041177         0.233653        -1.962239
 C        -0.789160         0.233472        -1.140227
 H         0.760591         0.615419         1.321595
 H        -3.242077         0.394839         0.413138
 H        -2.343677         0.177306         1.873623
 H        -1.255135         2.362702         1.690873
 H        -2.035362         3.907595         0.153036
 H        -2.426201         3.642323        -2.165183
 H        -3.437568         1.340934        -2.848393
 H        -1.819658         1.683958        -3.469318
 H        -0.396653        -0.794943        -1.207582
 H        -0.079328         0.938940        -1.509457
