19
Iteration:  2737
 O         0.214444         0.090124         0.885361
 C        -1.014703         0.514754         0.298409
 C        -2.230941         0.613755         1.226934
 C        -1.415833         1.884717         0.609321
 C        -2.109456         2.913491        -0.215242
 C        -2.464203         2.766535        -1.579732
 C        -1.839390         1.720995        -2.529383
 O        -2.048905         0.258710        -2.001927
 C        -1.096523        -0.118403        -1.101198
 H         0.818098         0.830917         0.904655
 H        -3.137919         0.607571         0.751425
 H        -2.118843         0.188657         2.176615
 H        -0.799723         2.327458         1.319153
 H        -2.460204         3.792756         0.322513
 H        -2.805374         3.625035        -2.141609
 H        -2.172144         1.681148        -3.621033
 H        -0.625525         1.842759        -2.490647
 H        -1.132339        -1.203621        -1.064547
 H         0.016544         0.091010        -1.583193
