19
Iteration:  1453
 O         0.159293        -0.006410         0.997142
 C        -1.008015         0.504375         0.325633
 C        -2.217513         0.754347         1.099972
 C        -1.298594         1.904399         0.648818
 C        -2.069277         2.915611        -0.239649
 C        -2.497440         2.705485        -1.500350
 C        -1.953842         1.728208        -2.533825
 O        -2.035111         0.287487        -2.124252
 C        -0.987301        -0.084424        -1.064839
 H         0.928207         0.317840         0.413592
 H        -3.165137         0.503392         0.570195
 H        -2.181047         0.447109         2.153280
 H        -0.818867         2.365819         1.527651
 H        -2.329769         3.699045         0.470275
 H        -3.323346         3.393915        -1.986926
 H        -2.436507         1.681460        -3.573563
 H        -0.941766         2.125664        -2.646989
 H        -1.162925        -1.179419        -0.950126
 H         0.013076        -0.070397        -1.554251
