19
Iteration:  3471charge 0 multiplicity 1
 O         0.263726         0.035933         0.879458
 C        -0.967617         0.580982         0.309722
 C        -2.171307         0.641661         1.208314
 C        -1.463887         1.891973         0.608840
 C        -2.264673         2.709077        -0.227378
 C        -2.374685         2.795136        -1.596831
 C        -1.696162         1.738862        -2.414194
 O        -2.101212         0.456439        -2.063529
 C        -1.168758        -0.121010        -1.075118
 H         1.031796         0.101617         0.291483
 H        -3.062972         0.178119         0.811830
 H        -1.997251         0.362424         2.270171
 H        -1.031069         2.679331         1.348950
 H        -2.691934         3.614152         0.182387
 H        -3.235960         3.333856        -2.139225
 H        -1.867620         1.907100        -3.611976
 H        -0.564020         1.652006        -2.421226
 H        -1.493205        -1.161087        -0.762758
 H        -0.219342        -0.457260        -1.566966
