19
Iteration:  1529charge 0 multiplicity 1
 O         0.389172        -0.025218         0.869729
 C        -0.937157         0.470966         0.360841
 C        -2.203437         0.628966         1.182976
 C        -1.548475         1.847536         0.642073
 C        -2.270157         2.842631        -0.327401
 C        -2.313947         2.787963        -1.638988
 C        -1.731534         1.702034        -2.513945
 O        -2.189028         0.423364        -1.896319
 C        -1.121089        -0.062572        -1.079553
 H         1.076692         0.422674         0.425111
 H        -3.228488         0.339109         0.835563
 H        -2.337952         0.785456         2.231956
 H        -1.086434         2.529595         1.395967
 H        -2.637112         3.718504         0.238466
 H        -2.718911         3.797435        -2.088070
 H        -2.274797         1.652927        -3.614703
 H        -0.688802         1.756733        -2.659614
 H        -1.486121        -1.093232        -1.087860
 H        -0.124025         0.025016        -1.541404
