19
Iteration:  4012charge 0 multiplicity 1
 O         0.263411         0.149671         1.073172
 C        -0.897334         0.553964         0.340940
 C        -2.271852         0.408304         0.977055
 C        -1.732664         1.793304         0.777985
 C        -1.902869         2.813492        -0.290399
 C        -2.009542         2.758277        -1.658865
 C        -2.212187         1.615913        -2.569206
 O        -2.179556         0.370010        -1.893443
 C        -0.937217         0.096283        -1.173124
 H         1.089020         0.658953         0.778382
 H        -3.090598         0.198280         0.316606
 H        -2.460966         0.086721         1.987248
 H        -1.419798         2.309342         1.717655
 H        -1.863274         3.910943         0.164198
 H        -2.345441         3.664334        -2.105051
 H        -3.241596         1.806724        -2.961673
 H        -1.477104         1.868377        -3.445817
 H        -0.639079        -0.964263        -1.292927
 H        -0.143219         0.586544        -1.657367
