19
Iteration:  3918charge 0 multiplicity 1
 O         0.037832        -0.061898         1.018840
 C        -0.942345         0.546586         0.206350
 C        -2.082651         0.751725         1.174100
 C        -1.315661         1.993640         0.675084
 C        -2.220137         2.854659        -0.216768
 C        -2.564351         2.732379        -1.577199
 C        -1.858488         1.741065        -2.505624
 O        -1.936616         0.368410        -2.079825
 C        -1.004154        -0.178262        -1.128766
 H         0.902157        -0.018072         0.606640
 H        -3.108231         0.727826         0.790992
 H        -1.925864         0.380303         2.205627
 H        -0.723357         2.538207         1.395195
 H        -2.875262         3.395634         0.287464
 H        -3.419034         3.279918        -1.894080
 H        -2.350366         1.879876        -3.470577
 H        -0.732938         1.995480        -2.654469
 H        -1.311473        -1.249600        -1.021461
 H        -0.035792        -0.213213        -1.577918
