19
Iteration:  3797
 O         0.202318         0.194921         0.921633
 C        -1.021012         0.499635         0.302304
 C        -2.255671         0.474020         1.101539
 C        -1.537957         1.797531         0.596318
 C        -2.045578         2.851000        -0.262176
 C        -2.249615         2.732526        -1.599183
 C        -1.862473         1.639324        -2.531453
 O        -2.166780         0.409510        -1.862479
 C        -1.005652         0.000038        -1.082333
 H         0.958552         0.729400         0.505537
 H        -3.121792         0.066153         0.595670
 H        -2.074774         0.385910         2.166814
 H        -1.141543         2.188098         1.574527
 H        -2.256242         3.777440         0.117905
 H        -2.610361         3.677396        -2.066913
 H        -2.573189         1.607531        -3.354279
 H        -0.855463         1.788031        -2.842411
 H        -0.920003        -1.117391        -1.091034
 H        -0.059946         0.219873        -1.628066
