19
Iteration:  1890
 O         0.158353        -0.007432         0.963871
 C        -0.926977         0.486162         0.233100
 C        -2.147960         0.686372         1.118982
 C        -1.469748         1.965598         0.631714
 C        -2.259640         2.861542        -0.216581
 C        -2.330787         2.915951        -1.610805
 C        -1.870120         1.729664        -2.458635
 O        -2.058157         0.296752        -1.985749
 C        -0.982656        -0.161457        -1.122824
 H         1.024204         0.177738         0.429854
 H        -3.245237         0.535269         0.950684
 H        -1.811309         0.314502         2.137702
 H        -0.789145         2.524771         1.256474
 H        -2.811494         3.626498         0.355170
 H        -3.263271         3.221741        -1.994472
 H        -2.430181         1.725296        -3.325130
 H        -0.811313         1.693911        -2.714624
 H        -1.340749        -1.202264        -0.765410
 H        -0.084306        -0.129161        -1.661275
