19
Iteration:  4710charge 0 multiplicity 1
 O         0.108599        -0.099086         1.031682
 C        -0.875916         0.565548         0.243595
 C        -2.181612         0.658627         1.002239
 C        -1.399393         1.895189         0.641327
 C        -2.194139         2.858099        -0.229130
 C        -2.430500         2.795332        -1.573268
 C        -1.913259         1.651738        -2.503306
 O        -2.117077         0.341042        -1.899465
 C        -0.886920         0.039170        -1.194842
 H         0.994436         0.279442         0.905401
 H        -3.085865         0.412428         0.557510
 H        -2.048008         0.351597         1.989512
 H        -0.938717         2.458129         1.393489
 H        -2.555852         3.815388         0.337648
 H        -3.116456         3.495188        -1.987553
 H        -2.442649         1.600017        -3.408394
 H        -0.894176         1.757659        -2.644128
 H        -1.051570        -1.031338        -0.888072
 H         0.036211         0.341485        -1.788226
