19
Iteration:  1046
 O         0.112814        -0.049197         0.982109
 C        -1.009541         0.434195         0.262822
 C        -2.174540         0.775361         1.132906
 C        -1.318429         1.869742         0.556031
 C        -2.108955         2.744052        -0.304500
 C        -2.501540         2.726545        -1.546877
 C        -1.965683         1.696512        -2.501839
 O        -2.000419         0.435761        -1.897280
 C        -0.977473        -0.010099        -1.122950
 H         0.949452         0.494348         0.774111
 H        -3.149980         0.525402         0.671037
 H        -2.097114         0.586513         2.181675
 H        -0.475174         2.312570         1.216394
 H        -2.589019         3.631485         0.223748
 H        -3.271162         3.450853        -1.932306
 H        -2.476486         1.636887        -3.438667
 H        -0.897262         1.981402        -2.798883
 H        -0.910758        -1.132756        -1.098374
 H        -0.025364         0.407519        -1.639616
