19
Iteration:    75
 O         0.137486         0.062012         1.024550
 C        -1.004314         0.509293         0.265935
 C        -2.314476         0.593262         1.004896
 C        -1.364856         1.832764         0.744637
 C        -1.971547         2.844900        -0.132947
 C        -2.227780         2.794761        -1.509458
 C        -2.246293         1.589157        -2.484709
 O        -1.982435         0.196062        -2.102607
 C        -0.826774         0.310241        -1.245173
 H         0.027254        -0.822389         1.353894
 H        -3.222683         0.404958         0.446198
 H        -2.336372         0.242682         2.030970
 H        -0.826782         2.139827         1.616942
 H        -2.447942         3.613023         0.430923
 H        -2.966399         3.501842        -1.743886
 H        -3.217123         1.651719        -2.953415
 H        -1.560909         1.801027        -3.391026
 H        -0.131828        -0.537401        -1.399988
 H        -0.130229         1.101663        -1.642916
