19
Iteration:   271
 O         0.284770        -0.087800         1.069479
 C        -0.877007         0.429559         0.230294
 C        -2.150679         0.663517         1.044767
 C        -1.408836         1.885038         0.552998
 C        -2.246766         2.932343        -0.266911
 C        -2.632111         2.778714        -1.521443
 C        -1.839605         1.744802        -2.394363
 O        -2.085770         0.403582        -2.001082
 C        -0.995206        -0.102881        -1.227195
 H         0.590691         0.594988         1.678757
 H        -2.933141         0.444216         0.331637
 H        -2.169531         0.319011         2.081774
 H        -0.893996         2.416272         1.445929
 H        -2.430631         3.781579         0.395858
 H        -3.265143         3.577762        -2.045382
 H        -2.143866         1.851576        -3.478157
 H        -0.700867         1.905464        -2.366225
 H        -1.090584        -1.225814        -1.165955
 H        -0.159805         0.223285        -1.773781
