19
Iteration:  3473charge 0 multiplicity 1
 O         0.258550         0.028735         0.872850
 C        -0.972493         0.598588         0.325005
 C        -2.185714         0.632138         1.206059
 C        -1.451957         1.895313         0.594869
 C        -2.251143         2.719144        -0.243921
 C        -2.381704         2.770696        -1.584125
 C        -1.699835         1.747050        -2.403191
 O        -2.098985         0.451147        -2.072632
 C        -1.162313        -0.111855        -1.059006
 H         1.068272         0.128652         0.216473
 H        -3.099628         0.175786         0.833487
 H        -1.982403         0.368341         2.267615
 H        -1.036850         2.608886         1.255272
 H        -2.674845         3.609653         0.232012
 H        -3.241443         3.290442        -2.132982
 H        -1.824939         1.907806        -3.550331
 H        -0.572109         1.715653        -2.389880
 H        -1.527906        -1.108737        -0.783963
 H        -0.215899        -0.459467        -1.561760
