19
Iteration:   449charge 0 multiplicity 1
 O         0.165721        -0.112666         1.110644
 C        -0.963272         0.408894         0.382985
 C        -2.210247         0.728358         0.990700
 C        -1.281718         1.905469         0.641347
 C        -2.032544         2.894484        -0.262138
 C        -2.427942         2.779750        -1.537350
 C        -2.262895         1.593423        -2.568946
 O        -1.937414         0.314698        -2.033562
 C        -0.842714         0.160135        -1.222465
 H         0.290634         0.439866         1.896353
 H        -3.055166         0.580861         0.298999
 H        -2.547260         0.468644         2.014549
 H        -0.830885         2.446746         1.440317
 H        -2.522436         3.601005         0.372887
 H        -3.251423         3.350293        -1.867440
 H        -3.204144         1.578120        -3.057695
 H        -1.557941         1.843565        -3.315715
 H        -0.565477        -0.914863        -1.249121
 H         0.046291         0.638332        -1.637833
