19
Iteration:   124charge 0 multiplicity 1
 O         0.235168         0.079854         0.947038
 C        -0.905254         0.569486         0.364383
 C        -2.173742         0.253566         0.928731
 C        -1.698143         1.798599         0.649608
 C        -1.805536         2.944787        -0.314245
 C        -2.212071         2.882927        -1.595628
 C        -2.305174         1.678747        -2.473428
 O        -2.045998         0.311172        -1.926656
 C        -0.886831         0.194829        -1.080031
 H        -0.037687        -0.335927         1.806230
 H        -2.921892        -0.204960         0.256864
 H        -2.304243         0.162111         2.037041
 H        -1.511792         2.162601         1.682725
 H        -2.060422         3.877115         0.268638
 H        -2.451696         3.904488        -2.029765
 H        -3.345507         1.626544        -2.900046
 H        -1.741309         1.832587        -3.360332
 H        -0.617079        -0.862080        -1.137568
 H         0.002995         0.628606        -1.486920
