19
Iteration:  3743
 O         0.024472        -0.092781         1.117475
 C        -0.956131         0.529795         0.244665
 C        -2.242181         0.612560         0.981713
 C        -1.450359         1.923277         0.632184
 C        -1.962917         2.942088        -0.326613
 C        -2.374276         2.806501        -1.546640
 C        -2.294092         1.567206        -2.451770
 O        -1.869471         0.283790        -1.942504
 C        -0.749244         0.117298        -1.175798
 H         0.929532         0.350125         0.925571
 H        -3.163009         0.507889         0.427458
 H        -2.176901         0.275273         2.026332
 H        -0.885170         2.297865         1.542625
 H        -2.205388         3.855368         0.134568
 H        -2.990528         3.628586        -1.986264
 H        -3.249639         1.342639        -2.858945
 H        -1.633044         1.938326        -3.275279
 H        -0.696938        -1.015079        -1.151666
 H         0.130623         0.690393        -1.651789
