19
Iteration:   848charge 0 multiplicity 1
 O         0.012255        -0.034298         1.121937
 C        -0.970543         0.537924         0.198065
 C        -2.217741         0.628122         1.027685
 C        -1.328245         1.953677         0.658221
 C        -1.959702         2.938201        -0.230777
 C        -2.417649         2.795194        -1.557945
 C        -2.241223         1.550308        -2.515474
 O        -1.982735         0.243517        -1.940405
 C        -0.785767         0.072191        -1.208673
 H         0.919460         0.359584         0.953369
 H        -3.197068         0.362753         0.528554
 H        -2.096310         0.225038         2.040533
 H        -0.701496         2.359799         1.417996
 H        -2.048659         3.872557         0.180244
 H        -2.923824         3.673629        -1.995575
 H        -3.163080         1.334398        -3.085343
 H        -1.521880         1.981659        -3.257173
 H        -0.525611        -1.006774        -1.302437
 H         0.018971         0.695038        -1.610925
