19
Iteration:  1776charge 0 multiplicity 1
 O         0.232482         0.041910         1.165054
 C        -0.908187         0.471225         0.380532
 C        -2.306462         0.444036         0.939026
 C        -1.530711         1.739412         0.577932
 C        -1.775027         2.885389        -0.413503
 C        -2.256267         2.807479        -1.632869
 C        -2.308920         1.609519        -2.490257
 O        -2.128709         0.341995        -1.829404
 C        -0.952865         0.273621        -1.152099
 H         1.109847         0.467587         0.927046
 H        -3.054048        -0.026554         0.315637
 H        -2.312758         0.148864         1.980624
 H        -1.301148         2.157205         1.579332
 H        -1.625327         3.837456         0.100402
 H        -2.390052         3.824132        -2.213291
 H        -3.195261         1.459165        -3.232073
 H        -1.415693         1.847472        -3.187538
 H        -0.543313        -0.824950        -1.388495
 H        -0.289436         1.113121        -1.524316
