19
Iteration:   965charge 0 multiplicity 1
 O         0.335526         0.151143         1.043153
 C        -0.932698         0.408622         0.378115
 C        -2.350268         0.502406         0.947213
 C        -1.635706         1.734523         0.595089
 C        -1.818453         2.834943        -0.312110
 C        -2.021059         2.794085        -1.593572
 C        -2.292452         1.596850        -2.453550
 O        -2.218718         0.309497        -1.869953
 C        -0.906225         0.201940        -1.175116
 H         0.758237         1.095769         1.171222
 H        -3.118411         0.272730         0.162243
 H        -2.583474         0.295626         2.003252
 H        -1.302138         2.013531         1.555443
 H        -2.072775         3.785669         0.133994
 H        -2.248999         3.643333        -2.168773
 H        -3.431434         1.718304        -2.781534
 H        -1.634233         1.608722        -3.363719
 H        -0.421998        -0.760647        -1.326645
 H        -0.140960         0.986967        -1.562317
