19
Iteration:    98
 O         0.258144         0.031801         0.851386
 C        -1.017148         0.460293         0.293328
 C        -2.323862         0.559064         1.066087
 C        -1.617485         1.858601         0.819828
 C        -2.086780         2.843113        -0.187516
 C        -2.193908         2.715603        -1.573408
 C        -2.271206         1.610173        -2.461272
 O        -1.899099         0.356679        -2.009266
 C        -0.796031         0.231359        -1.208586
 H         0.104136        -0.602309         1.586160
 H        -3.288325         0.522064         0.565908
 H        -2.460895         0.277836         2.095684
 H        -1.006717         2.247902         1.633430
 H        -1.742263         3.850208         0.046033
 H        -1.994344         3.654849        -2.006873
 H        -3.326540         1.490243        -2.715565
 H        -1.854312         1.865702        -3.495810
 H        -0.413955        -0.766688        -1.430862
 H         0.107278         0.824760        -1.517895
