19
Iteration:  2758charge 0 multiplicity 1
 O         0.158952         0.133372         0.969121
 C        -0.993860         0.431559         0.333778
 C        -2.198292         0.594139         1.205365
 C        -1.521905         1.846319         0.677590
 C        -2.024202         2.833969        -0.294388
 C        -2.321390         2.732279        -1.638911
 C        -1.962404         1.698457        -2.496938
 O        -2.078184         0.375913        -2.013037
 C        -0.997533        -0.045853        -1.147042
 H         0.854632         0.693329         0.613079
 H        -3.163343         0.310361         0.970417
 H        -1.935257         0.531817         2.218367
 H        -0.955065         2.308228         1.475568
 H        -2.345137         3.704952         0.245402
 H        -2.811864         3.551259        -2.089584
 H        -2.685485         1.750765        -3.382424
 H        -0.892397         1.733062        -3.036803
 H        -0.970783        -1.135837        -1.167370
 H         0.028040         0.231380        -1.596507
