19
Iteration:  4904
 O         0.136954        -0.070690         0.962530
 C        -0.964074         0.539700         0.351333
 C        -2.296791         0.661989         0.981852
 C        -1.515941         1.920613         0.768258
 C        -2.041622         2.989304        -0.182063
 C        -2.260772         2.748501        -1.506924
 C        -2.177149         1.562326        -2.529053
 O        -2.016001         0.233504        -1.964316
 C        -0.812098         0.088134        -1.229079
 H         0.973447         0.442421         0.636776
 H        -3.056778         0.531289         0.278218
 H        -2.389385         0.303328         1.933697
 H        -1.070810         2.234812         1.651098
 H        -2.100171         4.018809         0.292453
 H        -2.384310         3.610362        -2.187876
 H        -3.220929         1.539788        -3.075827
 H        -1.318464         1.883501        -3.241483
 H        -0.428806        -0.994473        -1.185431
 H         0.063884         0.607976        -1.697380
