19
Iteration:   504charge 0 multiplicity 1
 O         0.169012        -0.033603         0.937634
 C        -0.914063         0.643340         0.329445
 C        -2.276681         0.546310         0.962457
 C        -1.532014         1.953845         0.795266
 C        -1.949100         2.959050        -0.214462
 C        -2.183816         2.750584        -1.597644
 C        -2.291119         1.540160        -2.528460
 O        -2.033782         0.159472        -1.972092
 C        -0.813419         0.207327        -1.188950
 H         0.116243         0.065618         1.959845
 H        -3.121579         0.268529         0.297570
 H        -2.223791         0.035170         1.945260
 H        -1.101722         2.299451         1.688847
 H        -2.091661         3.980719         0.143848
 H        -2.383297         3.618237        -2.180340
 H        -3.337144         1.601036        -2.739850
 H        -1.815703         1.690005        -3.489220
 H        -0.404168        -0.776596        -0.933250
 H        -0.085861         0.909048        -1.617894
