19
Iteration:  1918charge 0 multiplicity 1
 O         0.174635         0.035845         0.920794
 C        -0.929936         0.447643         0.292862
 C        -2.112298         0.659596         1.149932
 C        -1.485541         1.908503         0.616824
 C        -2.295117         2.854659        -0.266816
 C        -2.404050         2.738258        -1.598894
 C        -1.785377         1.649374        -2.466383
 O        -2.118357         0.420846        -1.922198
 C        -1.053192        -0.026552        -1.092442
 H         0.946699        -0.055192         0.270820
 H        -3.039050         0.283961         0.818268
 H        -2.009182         0.351724         2.161835
 H        -0.733988         2.557442         1.122731
 H        -2.483329         3.734575         0.358431
 H        -2.782311         3.635324        -2.196007
 H        -1.936742         1.765387        -3.656587
 H        -0.624547         1.662138        -2.495472
 H        -1.202753        -1.091770        -1.010261
 H        -0.075494        -0.005000        -1.746333
