19
Iteration:  3233
 O         0.212064         0.030729         1.154081
 C        -0.918627         0.529556         0.335006
 C        -2.303992         0.425987         0.893392
 C        -1.507736         1.840962         0.665771
 C        -1.808881         2.879824        -0.295275
 C        -2.286301         2.784150        -1.561719
 C        -2.378548         1.641767        -2.604053
 O        -2.071202         0.353089        -1.943541
 C        -0.879239         0.147990        -1.085745
 H         1.043981         0.620051         0.908687
 H        -2.967069        -0.144279         0.232895
 H        -2.398842         0.287742         1.956515
 H        -1.388537         2.275360         1.740630
 H        -1.529671         3.874505         0.014643
 H        -2.232300         3.783138        -2.156495
 H        -3.255614         1.462388        -3.072144
 H        -1.512643         1.767639        -3.249503
 H        -0.716592        -0.920432        -1.159528
 H        -0.113775         0.765718        -1.524191
