19
Iteration:  1818
 O         0.150372        -0.035020         1.008186
 C        -0.927034         0.571026         0.192967
 C        -2.232948         0.643679         1.001576
 C        -1.535173         1.929553         0.659312
 C        -2.169567         2.848439        -0.260076
 C        -2.160495         2.780895        -1.557566
 C        -2.075222         1.571437        -2.403052
 O        -2.075417         0.330763        -1.887193
 C        -0.869094         0.033840        -1.181754
 H         0.926941         0.539561         0.687142
 H        -3.176647         0.254713         0.594930
 H        -2.122377         0.205848         2.003293
 H        -0.893261         2.388259         1.424568
 H        -2.201365         3.809622         0.255244
 H        -2.353822         3.767475        -2.128666
 H        -3.132751         1.571612        -2.925177
 H        -1.353948         1.604416        -3.192018
 H        -1.051196        -0.975471        -1.020036
 H        -0.022421         0.471073        -1.825997
