19
Iteration:  4521charge 0 multiplicity 1
 O         0.041814        -0.167273         1.040682
 C        -0.986992         0.556585         0.258663
 C        -2.297486         0.738949         0.974581
 C        -1.357263         1.975097         0.685481
 C        -1.955938         2.920489        -0.248477
 C        -2.439466         2.651370        -1.504865
 C        -2.194292         1.551367        -2.532889
 O        -1.933252         0.288446        -1.986614
 C        -0.785927         0.190748        -1.112866
 H         0.890171         0.360053         0.850436
 H        -3.296510         0.594987         0.504163
 H        -2.147077         0.280962         1.982810
 H        -0.755260         2.288770         1.538069
 H        -2.234597         3.782384         0.286903
 H        -2.899051         3.462385        -2.046769
 H        -3.065494         1.398945        -3.185860
 H        -1.221200         1.883322        -3.062734
 H        -0.549080        -0.942818        -1.181201
 H        -0.066260         0.847564        -1.563146
