19
Iteration:  2722
 O         0.217315         0.030291         0.870715
 C        -0.978840         0.528038         0.243535
 C        -2.157555         0.723093         1.097978
 C        -1.452359         1.961501         0.641076
 C        -2.224317         2.863661        -0.254550
 C        -2.359156         2.792640        -1.546373
 C        -1.804083         1.652842        -2.343156
 O        -2.090551         0.309382        -2.049901
 C        -1.037121        -0.200350        -1.107297
 H         0.791719         0.769268         0.971418
 H        -3.159289         0.404733         0.639285
 H        -2.104482         0.626717         2.206075
 H        -0.824213         2.483819         1.490839
 H        -2.849272         3.641752         0.228191
 H        -3.121606         3.430541        -2.000647
 H        -2.306684         1.819584        -3.294368
 H        -0.680123         1.819363        -2.503020
 H        -1.356842        -1.245751        -0.844959
 H        -0.069342        -0.125707        -1.588877
