19
Iteration:   300charge 0 multiplicity 1
 O         0.289740         0.045924         0.745611
 C        -0.928468         0.575316         0.247735
 C        -2.253695         0.531846         1.017238
 C        -1.496130         1.838114         0.607255
 C        -2.200393         2.836210        -0.222166
 C        -2.429821         2.825106        -1.586865
 C        -1.780189         1.715596        -2.465397
 O        -2.031838         0.460077        -1.794690
 C        -1.022997        -0.145412        -1.064663
 H         0.453848         0.367247         1.709913
 H        -3.058950         0.310444         0.322405
 H        -2.289707         0.291484         2.083579
 H        -1.192857         2.282690         1.498950
 H        -2.853740         3.451203         0.389247
 H        -3.039745         3.567221        -2.008031
 H        -2.504531         1.678738        -3.293354
 H        -0.717243         1.924711        -2.669125
 H        -1.359848        -1.152100        -0.813071
 H        -0.028066        -0.013876        -1.621509
