19
Iteration:   929charge 0 multiplicity 1
 O         0.109794        -0.025748         0.976804
 C        -0.907464         0.619755         0.253270
 C        -2.233069         0.466090         0.951509
 C        -1.659906         1.808000         0.724356
 C        -1.805874         2.865211        -0.347704
 C        -2.157647         2.737489        -1.654133
 C        -2.401670         1.541879        -2.490277
 O        -2.071835         0.358639        -1.748301
 C        -0.747708         0.281891        -1.168753
 H         0.340081         0.614492         1.751593
 H        -3.160160         0.176429         0.480479
 H        -1.998978        -0.019945         1.901240
 H        -1.242285         2.336547         1.641208
 H        -1.539671         3.933340         0.049041
 H        -1.980636         3.682557        -2.214877
 H        -3.519215         1.362116        -2.853388
 H        -1.835223         1.686470        -3.453102
 H        -0.538708        -0.849574        -1.217269
 H         0.011582         0.822727        -1.735869
