19
Iteration:   766
 O         0.329104         0.292316         0.938086
 C        -0.921822         0.392908         0.270622
 C        -2.202875         0.531876         1.151420
 C        -1.601808         1.764743         0.604363
 C        -2.146270         2.898112        -0.214486
 C        -2.084706         2.885156        -1.590841
 C        -1.944441         1.635842        -2.503744
 O        -2.268100         0.331302        -1.930122
 C        -1.046419        -0.182953        -1.168908
 H         0.763810         1.115637         1.012309
 H        -3.193273         0.371820         0.697181
 H        -2.227192         0.449323         2.217549
 H        -1.086290         2.321851         1.447305
 H        -2.342906         3.890186         0.418188
 H        -2.338331         3.803612        -2.187867
 H        -2.652972         1.659578        -3.365364
 H        -0.841329         1.571628        -2.965518
 H        -1.365271        -1.206556        -0.933932
 H        -0.128155        -0.144274        -1.828514
