19
Iteration:  2715charge 0 multiplicity 1
 O         0.229806        -0.004577         0.892867
 C        -0.959742         0.565263         0.206939
 C        -2.152162         0.755317         1.074624
 C        -1.485420         1.998036         0.603484
 C        -2.278886         2.839411        -0.167224
 C        -2.325883         2.795470        -1.544236
 C        -1.792530         1.623018        -2.361759
 O        -2.061925         0.332783        -1.999478
 C        -1.097736        -0.193092        -1.126961
 H         0.857558         0.772850         0.946978
 H        -3.024819         0.449165         0.613625
 H        -2.024783         0.587270         2.082418
 H        -0.917986         2.432166         1.363219
 H        -2.789605         3.678245         0.230665
 H        -3.222719         3.207164        -1.944040
 H        -2.230668         1.672716        -3.420550
 H        -0.612388         1.767702        -2.481077
 H        -1.415125        -1.223393        -0.997030
 H        -0.011749        -0.276365        -1.690011
