19
Iteration:     7
 O         0.236263         0.090195         0.997292
 C        -0.947362         0.479457         0.286598
 C        -2.288865         0.506602         0.934506
 C        -1.507800         1.781026         0.665256
 C        -2.044000         2.935783        -0.229559
 C        -2.292993         2.815595        -1.522626
 C        -2.144324         1.669362        -2.475404
 O        -2.035153         0.379790        -1.901958
 C        -0.825494         0.099811        -1.201503
 H         0.177495        -0.927939         1.024329
 H        -3.027224         0.003665         0.269482
 H        -2.297833         0.191796         1.989181
 H        -0.959254         2.231250         1.508597
 H        -2.565024         3.772521         0.290846
 H        -2.970790         3.647028        -1.825392
 H        -3.031946         1.635147        -3.124223
 H        -1.300906         1.893192        -3.172976
 H        -0.594232        -0.990400        -1.186706
 H         0.155204         0.502174        -1.562401
