19
Iteration:  2982charge 0 multiplicity 1
 O         0.293821         0.031196         0.950079
 C        -0.963485         0.463515         0.322592
 C        -2.313435         0.592026         0.973157
 C        -1.545799         1.796457         0.676678
 C        -1.986501         2.800822        -0.310194
 C        -2.268219         2.832527        -1.671647
 C        -2.098756         1.657569        -2.484315
 O        -2.098205         0.344178        -1.817438
 C        -0.936721         0.111246        -1.074847
 H         0.902110         0.862730         0.914729
 H        -3.176185         0.273232         0.433287
 H        -2.280622         0.377528         2.028984
 H        -1.207583         2.384517         1.601675
 H        -2.303385         3.662822         0.156251
 H        -2.373916         3.728543        -2.224239
 H        -3.069020         1.430089        -3.241526
 H        -1.254035         1.751498        -3.181821
 H        -0.957189        -0.969936        -1.127430
 H         0.132262         0.358086        -1.433382
