19
Iteration:  3363charge 0 multiplicity 1
 O         0.066740        -0.021771         1.076085
 C        -0.904352         0.523563         0.229897
 C        -2.264030         0.529146         0.950676
 C        -1.498248         1.856007         0.658539
 C        -2.050720         2.976623        -0.262018
 C        -2.219840         2.821988        -1.575224
 C        -2.209915         1.554586        -2.421564
 O        -2.012267         0.312959        -1.845914
 C        -0.816102         0.103421        -1.245211
 H         0.891842         0.405181         0.949369
 H        -3.252262         0.316267         0.493703
 H        -2.160076         0.124313         1.958485
 H        -0.862537         2.435216         1.364470
 H        -1.970290         3.942104         0.237604
 H        -2.500629         3.708966        -2.196673
 H        -3.229369         1.557729        -2.917784
 H        -1.551628         1.693568        -3.309751
 H        -0.491697        -0.963526        -1.243524
 H        -0.004476         0.650875        -1.809646
