19
Iteration:   187charge 0 multiplicity 1
 O         0.252691         0.075749         0.998650
 C        -0.953772         0.478608         0.300312
 C        -2.235254         0.411682         1.041862
 C        -1.563291         1.860407         0.666315
 C        -2.046520         2.941286        -0.252721
 C        -2.255350         2.879524        -1.558730
 C        -2.184498         1.661574        -2.516332
 O        -2.055627         0.321793        -1.959381
 C        -0.869267         0.126930        -1.117739
 H         0.417625        -0.831844         0.700871
 H        -3.157030         0.071970         0.570067
 H        -2.177643        -0.018192         2.055595
 H        -1.114283         2.268324         1.609289
 H        -2.280936         3.939664         0.223367
 H        -2.502610         3.757492        -2.215125
 H        -3.025515         1.586123        -3.203494
 H        -1.205799         1.782738        -3.122917
 H        -0.645278        -0.960388        -1.158913
 H         0.021761         0.650029        -1.617593
