19
Iteration:  3672charge 0 multiplicity 1
 O         0.040005        -0.075421         1.040684
 C        -0.980112         0.566056         0.263227
 C        -2.300149         0.526054         0.883124
 C        -1.583214         1.865911         0.724015
 C        -1.870951         2.898185        -0.274184
 C        -2.134820         2.775634        -1.663879
 C        -2.437000         1.491815        -2.395601
 O        -1.931543         0.291270        -1.819285
 C        -0.713330         0.331915        -1.222544
 H         0.790784         0.549378         1.220015
 H        -3.133906         0.265854         0.231299
 H        -2.107267         0.033230         1.845699
 H        -1.133967         2.293346         1.565816
 H        -1.715996         3.987277         0.064778
 H        -2.065709         3.623881        -2.379230
 H        -3.585048         1.314442        -2.387999
 H        -2.038331         1.491068        -3.385924
 H        -0.305771        -0.644950        -1.161723
 H        -0.021197         1.077781        -1.697765
