19
Iteration:  1939
 O         0.280537         0.095818         0.919737
 C        -0.995280         0.492452         0.320690
 C        -2.242445         0.572646         1.223578
 C        -1.447552         1.889976         0.611361
 C        -2.068978         2.831835        -0.333882
 C        -2.400754         2.810922        -1.626240
 C        -1.825839         1.765722        -2.468838
 O        -2.079141         0.416170        -1.949340
 C        -1.127741        -0.201178        -1.107741
 H         0.957499         0.539894         0.461738
 H        -3.160890         0.231763         0.784475
 H        -2.230021         0.512940         2.295461
 H        -0.999214         2.353902         1.534527
 H        -2.819040         3.404138         0.322287
 H        -3.089658         3.555074        -2.145192
 H        -2.332109         1.611959        -3.549369
 H        -0.682010         1.793013        -2.774201
 H        -1.228439        -1.240739        -1.026637
 H        -0.147012         0.022379        -1.635543
