19
Iteration:  4480
 O         0.181559        -0.016616         1.146126
 C        -0.897817         0.506153         0.315370
 C        -2.293108         0.525236         0.937938
 C        -1.564969         1.852742         0.659029
 C        -1.913565         2.896976        -0.293023
 C        -2.164737         2.821315        -1.596074
 C        -2.334528         1.627249        -2.526145
 O        -2.060107         0.257459        -1.958119
 C        -0.819667         0.172349        -1.176990
 H         0.798089         0.664108         1.189246
 H        -3.250713         0.247040         0.418422
 H        -2.179727         0.155135         2.003553
 H        -1.213619         2.293698         1.624258
 H        -2.111229         4.067924         0.062135
 H        -2.266897         3.832172        -2.099746
 H        -3.427279         1.516007        -2.723803
 H        -1.736179         1.760811        -3.415703
 H        -0.635859        -0.902273        -1.080549
 H         0.129234         0.598049        -1.603676
