19
Iteration:  2228charge 0 multiplicity 1
 O         0.186147         0.007093         1.021113
 C        -0.953734         0.557886         0.278181
 C        -2.160680         0.675481         1.108262
 C        -1.517902         1.939549         0.683698
 C        -2.136920         2.858191        -0.230548
 C        -2.212823         2.774902        -1.549597
 C        -2.061048         1.604095        -2.517945
 O        -2.049489         0.293388        -2.057343
 C        -0.998310        -0.085575        -1.156950
 H         0.859871         0.754560         1.132893
 H        -3.190076         0.497031         0.722563
 H        -1.902563         0.422232         2.117426
 H        -1.009136         2.421593         1.539363
 H        -2.630275         3.768744         0.200411
 H        -2.479858         3.771815        -1.960757
 H        -2.932933         1.767502        -3.241496
 H        -1.217738         1.881462        -3.302024
 H        -0.987185        -1.194983        -1.088297
 H        -0.013794         0.119468        -1.701743
