19
Iteration:  3534charge 0 multiplicity 1
 O         0.082017         0.063926         0.982364
 C        -0.977313         0.497925         0.246412
 C        -2.070974         0.685052         1.179979
 C        -1.382569         1.923921         0.605948
 C        -2.226248         2.825174        -0.175602
 C        -2.439619         2.801882        -1.547065
 C        -1.775228         1.688808        -2.464572
 O        -2.044152         0.348008        -2.121908
 C        -1.107652        -0.150571        -1.120761
 H         0.905989         0.397184         0.566366
 H        -3.014212         0.422458         0.733493
 H        -1.880040         0.234509         2.174457
 H        -0.575852         2.404799         1.316025
 H        -2.607516         3.596036         0.544212
 H        -3.183701         3.486652        -2.002317
 H        -2.196001         1.848982        -3.455877
 H        -0.723129         1.891480        -2.455836
 H        -1.283704        -1.274127        -1.128063
 H        -0.113929         0.055963        -1.535830
