19
Iteration:  4081
 O         0.097115        -0.063696         1.106201
 C        -0.858708         0.576629         0.347030
 C        -2.238052         0.545813         0.829908
 C        -1.508508         1.862254         0.738670
 C        -1.976076         2.911444        -0.299956
 C        -2.204801         2.775877        -1.638910
 C        -2.359844         1.589620        -2.450948
 O        -2.030084         0.273679        -1.916028
 C        -0.801256         0.189075        -1.140062
 H         0.934107         0.562054         1.254802
 H        -2.960827         0.474446        -0.014996
 H        -2.504589         0.073529         1.796731
 H        -1.131633         2.208114         1.681975
 H        -1.832617         3.878587        -0.037735
 H        -2.274797         3.710998        -2.182579
 H        -3.463340         1.573888        -2.684088
 H        -1.827305         1.676118        -3.529375
 H        -0.458637        -0.748484        -1.173341
 H        -0.001016         0.733082        -1.553654
