19
Iteration:  4647charge 0 multiplicity 1
 O         0.219958         0.281105         0.854542
 C        -1.001987         0.507390         0.272945
 C        -2.211090         0.394416         1.238289
 C        -1.659572         1.831618         0.692424
 C        -2.172598         2.872047        -0.245022
 C        -2.066888         2.812945        -1.555872
 C        -1.889335         1.659724        -2.490038
 O        -2.109385         0.386264        -1.983095
 C        -1.059233        -0.133467        -1.139541
 H         0.914697         0.866810         0.444892
 H        -3.033980        -0.053247         0.734852
 H        -2.193396         0.235862         2.296387
 H        -1.051768         2.130209         1.509143
 H        -2.318148         3.920826         0.177019
 H        -2.267388         3.698493        -2.046290
 H        -2.632635         1.851390        -3.295860
 H        -0.872147         1.639326        -3.117305
 H        -1.261888        -1.130090        -1.025274
 H        -0.143177        -0.247501        -1.677468
