19
Iteration:  4135
 O         0.012979        -0.116574         1.135612
 C        -0.982896         0.504759         0.285792
 C        -2.214289         0.745694         1.010757
 C        -1.321096         1.976914         0.696794
 C        -2.025470         2.885923        -0.240043
 C        -2.453301         2.741270        -1.578279
 C        -2.217102         1.545990        -2.520903
 O        -1.903286         0.259160        -1.989966
 C        -0.796120         0.118363        -1.234665
 H         0.872880         0.047162         0.552500
 H        -3.180053         0.931630         0.513594
 H        -2.329092         0.242590         1.998317
 H        -0.675880         2.446824         1.445854
 H        -2.337237         3.755268         0.242305
 H        -2.993540         3.596138        -1.779493
 H        -2.977551         1.601395        -3.295655
 H        -1.343905         1.869812        -2.988407
 H        -0.461674        -0.929528        -1.310638
 H        -0.020733         0.838166        -1.515640
