19
Iteration:  1268charge 0 multiplicity 1
 O         0.069331        -0.155999         1.204323
 C        -0.881708         0.485500         0.320856
 C        -2.245428         0.705547         0.874927
 C        -1.309857         1.905173         0.592251
 C        -1.986826         2.907155        -0.359677
 C        -2.403162         2.752774        -1.566059
 C        -2.286421         1.586070        -2.401743
 O        -2.012894         0.267755        -1.927712
 C        -0.775002         0.261354        -1.159231
 H         0.969555        -0.332279         0.739677
 H        -3.207263         0.669889         0.296710
 H        -2.549695         0.397317         1.890566
 H        -0.789977         2.400239         1.372135
 H        -2.186393         3.850603         0.060270
 H        -2.991661         3.566061        -2.156548
 H        -3.223257         1.397393        -2.838515
 H        -1.633933         1.974614        -3.205622
 H        -0.492929        -0.873581        -1.275463
 H         0.051886         0.829750        -1.691701
