19
Iteration:  3725charge 0 multiplicity 1
 O        -0.005486        -0.047269         1.130309
 C        -0.974654         0.479230         0.314684
 C        -2.343701         0.623015         0.884846
 C        -1.340857         1.902896         0.696963
 C        -1.827413         2.923131        -0.344015
 C        -2.481839         2.754067        -1.492904
 C        -2.381174         1.552821        -2.488503
 O        -1.921850         0.284714        -1.939090
 C        -0.625349         0.197734        -1.180774
 H         0.985248         0.127543         0.946752
 H        -3.147599         0.641233         0.149691
 H        -2.452990         0.229931         1.899537
 H        -0.898555         2.296870         1.504726
 H        -1.786552         3.958958         0.085938
 H        -2.855866         3.523510        -2.092672
 H        -3.419709         1.247291        -2.813489
 H        -1.651109         1.789985        -3.358308
 H        -0.180837        -0.797143        -1.384187
 H         0.128485         0.900569        -1.451242
