19
Iteration:  3239charge 0 multiplicity 1
 O         0.201768         0.044564         1.157907
 C        -0.911756         0.514934         0.369410
 C        -2.281061         0.492305         0.864224
 C        -1.543057         1.792916         0.698223
 C        -1.790222         2.901660        -0.305239
 C        -2.260621         2.801829        -1.542326
 C        -2.403024         1.577068        -2.547049
 O        -2.050341         0.335459        -1.989041
 C        -0.886574         0.194765        -1.144309
 H         0.964952         0.555897         0.882531
 H        -3.031220        -0.021600         0.279751
 H        -2.375416         0.232525         1.929307
 H        -1.430474         2.191442         1.667848
 H        -1.530143         3.913744         0.038365
 H        -2.221612         3.758846        -1.962162
 H        -3.413829         1.366228        -3.148230
 H        -1.578149         1.790949        -3.292507
 H        -0.801421        -0.927874        -1.063603
 H         0.095044         0.671176        -1.521160
