19
Iteration:  4230
 O         0.301053         0.296609         0.866102
 C        -0.972000         0.571270         0.272366
 C        -2.158448         0.409390         1.123219
 C        -1.683060         1.841921         0.717215
 C        -2.163899         2.877781        -0.305742
 C        -2.152863         2.848024        -1.608464
 C        -1.753733         1.640358        -2.511108
 O        -2.179145         0.380837        -1.862652
 C        -1.198378        -0.218608        -1.141638
 H         1.088773         0.644658         0.583165
 H        -3.039104         0.096225         0.576636
 H        -2.214679        -0.029187         2.136692
 H        -1.152383         2.295361         1.480418
 H        -2.565024         3.674750         0.307907
 H        -2.176189         3.821059        -1.933342
 H        -2.279190         1.658006        -3.465670
 H        -0.743269         1.634328        -2.832059
 H        -1.448518        -1.280779        -0.732365
 H        -0.251846        -0.065745        -1.507644
