19
Iteration:  2218
 O         0.144541         0.021343         0.944631
 C        -0.944679         0.547755         0.292904
 C        -2.216403         0.606927         1.073890
 C        -1.456634         1.919708         0.697629
 C        -2.135236         2.954206        -0.229017
 C        -2.220689         2.787008        -1.595822
 C        -2.046006         1.621192        -2.529920
 O        -2.080502         0.294881        -1.986600
 C        -0.904556        -0.058989        -1.080491
 H         0.942242         0.622410         1.147791
 H        -3.092739         0.335263         0.459925
 H        -2.265324         0.254494         2.073107
 H        -0.847573         2.259827         1.542242
 H        -2.503283         3.841523         0.336799
 H        -2.652693         3.533236        -2.345859
 H        -3.179389         1.600356        -2.953088
 H        -1.198084         1.758225        -3.373388
 H        -1.015456        -1.178250        -1.045458
 H         0.064567         0.297580        -1.500305
