19
Iteration:  4387charge 0 multiplicity 1
 O         0.152254         0.022620         1.078793
 C        -0.951989         0.507455         0.306679
 C        -2.216685         0.594693         1.074031
 C        -1.574827         1.863282         0.699020
 C        -1.993142         2.840856        -0.262691
 C        -2.221680         2.750703        -1.555021
 C        -2.169313         1.604773        -2.573514
 O        -2.034295         0.350263        -1.963419
 C        -0.935657         0.102783        -1.241298
 H         0.949797         0.675891         1.064794
 H        -2.994803         0.191273         0.470297
 H        -2.157448         0.280527         2.101927
 H        -1.105826         2.324582         1.616187
 H        -2.133062         3.772529         0.115789
 H        -2.523861         3.643517        -2.162055
 H        -3.056878         1.664021        -3.224756
 H        -1.213644         1.861254        -3.104115
 H        -0.703080        -1.125741        -1.154800
 H        -0.007401         0.487072        -1.710737
