19
Iteration:  1501
 O         0.118792         0.028238         0.898428
 C        -1.013985         0.550528         0.214927
 C        -2.108618         0.604310         1.175310
 C        -1.375662         1.907865         0.592022
 C        -2.192481         2.864452        -0.269296
 C        -2.442063         2.802873        -1.624095
 C        -1.768139         1.701726        -2.428831
 O        -2.069952         0.357065        -1.917259
 C        -1.079169        -0.125425        -1.102337
 H         0.958957         0.377779         0.522068
 H        -3.138910         0.579196         0.910796
 H        -2.010700         0.337171         2.234225
 H        -0.690180         2.503817         1.215620
 H        -2.756660         3.639752         0.292440
 H        -3.151658         3.494257        -1.926813
 H        -2.106304         1.719210        -3.420021
 H        -0.609472         1.870960        -2.428438
 H        -1.285132        -1.246378        -1.021799
 H        -0.050114        -0.195884        -1.551894
