19
Iteration:  1026
 O         0.251352        -0.039930         1.079793
 C        -0.947789         0.454738         0.308988
 C        -2.229207         0.667984         1.085873
 C        -1.358317         1.939387         0.671933
 C        -2.131510         2.917818        -0.255858
 C        -2.363053         2.807910        -1.562378
 C        -2.038656         1.644827        -2.549071
 O        -2.144593         0.305131        -1.994293
 C        -0.926394        -0.010380        -1.177782
 H         1.103455         0.126887         0.553134
 H        -3.072412         0.553240         0.376253
 H        -2.485945         0.299989         2.033255
 H        -1.031768         2.491635         1.591572
 H        -2.499929         3.792143         0.342434
 H        -2.933440         3.652540        -1.993030
 H        -2.757673         1.697259        -3.315799
 H        -1.027472         1.754839        -3.036505
 H        -0.822721        -1.149249        -1.229635
 H        -0.055179         0.385288        -1.722678
