19
Iteration:  1751
 O         0.151482         0.064013         1.135056
 C        -0.983547         0.462175         0.265577
 C        -2.278015         0.526489         0.906291
 C        -1.544741         1.838706         0.780341
 C        -1.835082         2.828081        -0.316897
 C        -2.153839         2.755896        -1.648664
 C        -2.392888         1.577141        -2.494967
 O        -2.103799         0.344431        -1.825649
 C        -0.734451         0.197175        -1.266920
 H         0.641085         0.859642         1.271206
 H        -3.105583         0.352895         0.182506
 H        -2.279047        -0.106431         1.858820
 H        -1.076523         2.204358         1.658498
 H        -1.526884         3.791682         0.039300
 H        -2.250774         3.699544        -2.159428
 H        -3.534733         1.502495        -2.730476
 H        -1.920113         1.703418        -3.485813
 H        -0.445588        -0.833026        -1.316424
 H        -0.009483         0.975855        -1.734917
