19
Iteration:  1182charge 0 multiplicity 1
 O         0.279017         0.171921         0.854922
 C        -0.936352         0.537990         0.247549
 C        -2.255480         0.516158         1.200823
 C        -1.535302         1.820608         0.675365
 C        -2.158250         2.756660        -0.321293
 C        -2.217788         2.762285        -1.653248
 C        -1.852999         1.647542        -2.524233
 O        -2.103638         0.506840        -1.820038
 C        -1.171987        -0.129316        -1.091064
 H         0.795977         0.957764         0.783178
 H        -3.189332         0.097040         0.718607
 H        -1.954002         0.296405         2.244037
 H        -0.884064         2.414379         1.255854
 H        -2.514517         3.603447         0.190360
 H        -2.546169         3.748888        -2.153309
 H        -2.330084         1.538758        -3.536793
 H        -0.746860         1.771547        -2.747500
 H        -1.466826        -1.193631        -0.860441
 H        -0.248836        -0.113176        -1.636843
