19
Iteration:  4668charge 0 multiplicity 1
 O         0.339651         0.229032         0.938664
 C        -0.999810         0.403796         0.298348
 C        -2.263238         0.533582         1.149128
 C        -1.642268         1.772962         0.658218
 C        -2.121784         2.844978        -0.238845
 C        -2.213693         2.959891        -1.576199
 C        -1.912387         1.676666        -2.513607
 O        -2.068861         0.311028        -2.028869
 C        -1.104770        -0.110874        -1.068069
 H         0.893044         0.651066         0.328410
 H        -3.171363         0.153433         0.791944
 H        -2.077605         0.383871         2.176146
 H        -1.042670         2.142162         1.461887
 H        -2.390126         3.748847         0.432489
 H        -2.433684         3.877977        -2.014601
 H        -2.644362         1.718066        -3.300014
 H        -0.849826         1.718679        -2.946870
 H        -1.248647        -1.138281        -1.181435
 H        -0.087370         0.052554        -1.591446
