19
Iteration:   286
 O         0.273525        -0.046077         0.901135
 C        -0.864971         0.507714         0.334360
 C        -2.172573         0.485271         0.926496
 C        -1.431177         1.931540         0.556611
 C        -2.173005         2.877268        -0.288206
 C        -2.521347         2.817047        -1.592390
 C        -1.884889         1.810356        -2.404940
 O        -2.079146         0.427359        -1.894953
 C        -1.017675        -0.091847        -1.064899
 H         0.549573         0.503695         1.615061
 H        -3.115866         0.194740         0.437887
 H        -2.301076         0.391587         2.007009
 H        -0.965591         2.355242         1.449620
 H        -2.756039         3.644927         0.270399
 H        -3.435664         3.305548        -1.944091
 H        -2.032721         1.789274        -3.460592
 H        -0.809569         2.001403        -2.360006
 H        -1.269960        -1.145094        -0.952895
 H         0.005614        -0.267250        -1.552859
