19
Iteration:  1446charge 0 multiplicity 1
 O         0.145196        -0.044789         0.967536
 C        -0.964757         0.532796         0.280913
 C        -2.235854         0.727567         1.126485
 C        -1.381379         1.925218         0.615620
 C        -2.033220         2.845546        -0.263918
 C        -2.511713         2.677594        -1.499943
 C        -1.967038         1.691698        -2.540387
 O        -1.989898         0.347115        -2.027046
 C        -1.015411        -0.060786        -1.075865
 H         0.956584         0.342839         0.479247
 H        -3.124562         0.611293         0.550983
 H        -2.127409         0.500897         2.141996
 H        -0.880790         2.465545         1.450330
 H        -2.330267         3.808236         0.250908
 H        -3.064924         3.501529        -1.791133
 H        -2.503115         1.819351        -3.418893
 H        -0.850061         2.021748        -2.765313
 H        -1.106931        -1.185429        -1.034019
 H         0.041619         0.114128        -1.407515
