19
Iteration:  3104
 O         0.108926        -0.031874         0.924443
 C        -0.927029         0.523497         0.186665
 C        -2.102130         0.730449         1.211992
 C        -1.427916         1.965409         0.599945
 C        -2.295959         2.881102        -0.211250
 C        -2.356567         2.761981        -1.546290
 C        -1.780126         1.690606        -2.341816
 O        -2.046475         0.350665        -2.015845
 C        -1.073626        -0.129981        -1.183297
 H         0.919382         0.342189         0.676190
 H        -2.998241         0.358038         0.799620
 H        -1.933717         0.488704         2.255748
 H        -0.617790         2.501612         1.146004
 H        -3.034934         3.565569         0.123540
 H        -3.288212         3.191293        -2.035052
 H        -2.227913         1.838718        -3.422393
 H        -0.747917         1.759548        -2.613267
 H        -1.199248        -1.184421        -1.115754
 H        -0.127428        -0.116616        -1.722227
