19
Iteration:  3415charge 0 multiplicity 1
 O         0.277845         0.161236         0.909754
 C        -0.994815         0.419913         0.308104
 C        -2.261342         0.497033         1.128988
 C        -1.583286         1.840251         0.665864
 C        -2.020629         2.862463        -0.278077
 C        -2.281219         2.830943        -1.580399
 C        -1.926235         1.717344        -2.505417
 O        -2.143127         0.363541        -1.945131
 C        -1.024169        -0.117329        -1.117935
 H         0.807947         0.847214         0.577099
 H        -3.195762         0.247412         0.630248
 H        -2.179797         0.373571         2.188818
 H        -0.943481         2.353193         1.467469
 H        -2.405326         3.738678         0.185559
 H        -2.496274         3.763659        -2.053212
 H        -2.492154         1.807501        -3.502901
 H        -0.818458         1.767286        -2.606523
 H        -1.081808        -1.221887        -1.002195
 H        -0.068679         0.236423        -1.551371
