19
Iteration:  3919
 O         0.031310        -0.062712         1.025572
 C        -0.934243         0.545314         0.220303
 C        -2.077276         0.760457         1.167611
 C        -1.317820         1.989733         0.673176
 C        -2.219812         2.857947        -0.222694
 C        -2.556682         2.727082        -1.573304
 C        -1.864474         1.747481        -2.502114
 O        -1.939002         0.365236        -2.078003
 C        -1.004070        -0.168365        -1.142584
 H         0.938266        -0.014452         0.591260
 H        -3.098790         0.689706         0.762789
 H        -1.918419         0.361018         2.194815
 H        -0.723931         2.490295         1.392610
 H        -2.890527         3.409551         0.313305
 H        -3.451548         3.248490        -1.904648
 H        -2.356293         1.850801        -3.477330
 H        -0.711584         1.990140        -2.674924
 H        -1.357187        -1.258446        -1.012613
 H        -0.028547        -0.200241        -1.572836
