19
Iteration:  1741charge 0 multiplicity 1
 O         0.091633         0.049255         1.077242
 C        -0.886780         0.551446         0.252712
 C        -2.305511         0.492394         0.879893
 C        -1.504906         1.829188         0.728560
 C        -1.868425         2.886207        -0.284914
 C        -2.064842         2.746294        -1.615563
 C        -2.433725         1.530061        -2.435404
 O        -2.004831         0.317248        -1.858907
 C        -0.854948         0.222512        -1.201549
 H         0.674930         0.789248         1.369203
 H        -3.256925         0.431306         0.304356
 H        -2.325323        -0.123412         1.850476
 H        -1.066846         2.245357         1.603826
 H        -1.913218         3.910700         0.020307
 H        -2.178479         3.699456        -2.161728
 H        -3.610903         1.395024        -2.533226
 H        -1.985136         1.631752        -3.477320
 H        -0.535734        -0.846531        -1.393593
 H         0.028218         0.820072        -1.732806
