19
Iteration:   765charge 0 multiplicity 1
 O         0.334232         0.297549         0.934948
 C        -0.930001         0.388230         0.271679
 C        -2.196177         0.541795         1.144315
 C        -1.603308         1.768225         0.618625
 C        -2.148801         2.896095        -0.212377
 C        -2.079960         2.882844        -1.589716
 C        -1.949856         1.641583        -2.498315
 O        -2.258275         0.332901        -1.936756
 C        -1.053953        -0.193036        -1.168286
 H         0.741573         1.116876         1.038676
 H        -3.180226         0.391225         0.664306
 H        -2.237089         0.437832         2.212824
 H        -1.052193         2.314842         1.425492
 H        -2.384436         3.837244         0.408396
 H        -2.315602         3.788689        -2.188535
 H        -2.676913         1.658349        -3.388819
 H        -0.857276         1.560064        -2.978339
 H        -1.387770        -1.233849        -0.901440
 H        -0.135914        -0.147535        -1.834606
