19
Iteration:  2041
 O         0.163549        -0.066840         1.149278
 C        -0.888341         0.508223         0.326473
 C        -2.233588         0.532780         0.953724
 C        -1.538793         1.931027         0.598049
 C        -1.998954         2.902371        -0.359502
 C        -2.331849         2.797443        -1.638854
 C        -2.200436         1.627613        -2.516575
 O        -2.052288         0.416223        -1.825719
 C        -0.814139         0.074951        -1.127944
 H         1.057886        -0.017114         0.649695
 H        -3.172690         0.152028         0.439259
 H        -2.089302         0.229122         2.001605
 H        -1.059295         2.335078         1.460033
 H        -2.082166         3.870673         0.096440
 H        -2.663187         3.690476        -2.025717
 H        -3.248505         1.406730        -2.992469
 H        -1.626582         1.636151        -3.486928
 H        -0.617486        -0.998482        -1.225142
 H        -0.020084         0.534144        -1.684611
