19
Iteration:  4629charge 0 multiplicity 1
 O         0.241996         0.230816         0.872487
 C        -1.008100         0.572914         0.264825
 C        -2.168999         0.422148         1.101131
 C        -1.681307         1.812444         0.773208
 C        -2.120551         2.818456        -0.218892
 C        -2.066992         2.846088        -1.586096
 C        -1.852831         1.617218        -2.569862
 O        -2.170880         0.377793        -1.912585
 C        -1.134289        -0.082283        -1.128881
 H         0.858175         0.968858         0.587653
 H        -3.230849         0.232861         0.757458
 H        -1.731334        -0.079395         2.040279
 H        -1.156350         2.357288         1.625217
 H        -2.535864         3.608962         0.260052
 H        -2.336984         3.769966        -2.173586
 H        -2.408591         1.640726        -3.549696
 H        -0.885530         1.625341        -2.947714
 H        -1.016705        -1.241672        -0.843425
 H        -0.118755         0.219339        -1.518788
