19
Iteration:  4874charge 0 multiplicity 1
 O         0.119300         0.130959         1.094448
 C        -0.933593         0.531557         0.266426
 C        -2.277805         0.398215         1.012239
 C        -1.554785         1.802199         0.672689
 C        -1.890288         2.899571        -0.258362
 C        -2.099307         2.812938        -1.618026
 C        -2.271493         1.625031        -2.504021
 O        -2.096280         0.342153        -1.894962
 C        -0.817115         0.097130        -1.209373
 H         0.832152         0.607164         0.687526
 H        -3.108227         0.029127         0.400213
 H        -2.306946        -0.009351         2.012113
 H        -1.162174         2.068365         1.668792
 H        -2.176861         3.895991         0.185290
 H        -2.184343         3.638273        -2.236638
 H        -3.320965         1.616179        -2.803160
 H        -1.647611         1.778466        -3.338510
 H        -0.983559        -0.985658        -1.221420
 H         0.010790         0.712031        -1.656379
