19
Iteration:  3886
 O         0.154476         0.064375         0.865579
 C        -1.030631         0.405205         0.276029
 C        -2.130043         0.755369         1.321189
 C        -1.471845         1.879049         0.616309
 C        -2.239489         2.894750        -0.274802
 C        -2.407495         2.756911        -1.532578
 C        -1.738302         1.682405        -2.409437
 O        -1.990934         0.356834        -2.119771
 C        -1.115328        -0.115372        -1.112179
 H         0.977356         0.366725         0.304147
 H        -3.042984         0.356866         0.877958
 H        -2.038071         0.663745         2.424951
 H        -0.821844         2.330866         1.325679
 H        -2.816330         3.536648         0.260485
 H        -3.160943         3.258690        -2.077534
 H        -2.121912         1.895375        -3.412813
 H        -0.549422         1.838492        -2.421027
 H        -1.176494        -1.265238        -1.144435
 H        -0.086910         0.099878        -1.469821
