19
Iteration:  4895
 O         0.139885        -0.012250         0.999498
 C        -0.955637         0.531185         0.209166
 C        -2.268001         0.601701         0.960529
 C        -1.572267         1.925940         0.750619
 C        -2.041810         2.897507        -0.180451
 C        -2.180207         2.811588        -1.527316
 C        -2.156987         1.595396        -2.486145
 O        -2.029820         0.217339        -1.959828
 C        -0.830088         0.090320        -1.159304
 H         0.996701         0.447775         0.643067
 H        -3.179229         0.422145         0.433511
 H        -2.399808         0.331421         1.948658
 H        -1.039946         2.270065         1.616774
 H        -1.875930         3.977406         0.051417
 H        -2.444335         3.728090        -1.936123
 H        -3.227612         1.555099        -2.859187
 H        -1.558648         1.671168        -3.385588
 H        -0.676284        -1.002986        -1.207322
 H        -0.110484         0.784975        -1.519632
