19
Iteration:  4364
 O         0.084283         0.006233         1.063849
 C        -1.008725         0.486661         0.248850
 C        -2.260663         0.603177         1.023094
 C        -1.315509         1.934480         0.614699
 C        -2.063569         2.882142        -0.263876
 C        -2.424455         2.836380        -1.526793
 C        -2.034118         1.640645        -2.468039
 O        -2.021596         0.267897        -1.973679
 C        -0.869952        -0.002079        -1.147623
 H         0.898305         0.371911         0.887640
 H        -3.221645         0.652349         0.499277
 H        -2.185607         0.241386         2.056728
 H        -0.740790         2.353211         1.522463
 H        -2.221510         3.783490         0.138507
 H        -3.250869         3.532141        -2.011097
 H        -2.837461         1.721337        -3.232118
 H        -1.028991         1.938545        -2.891953
 H        -0.486612        -1.203606        -1.332005
 H        -0.022051         0.559171        -1.619329
