19
Iteration:  1909charge 0 multiplicity 1
 O         0.154325        -0.010569         0.948747
 C        -0.936581         0.560596         0.229018
 C        -2.083930         0.673390         1.177581
 C        -1.488018         1.976732         0.578971
 C        -2.295513         2.847504        -0.223792
 C        -2.397106         2.774792        -1.595572
 C        -1.765358         1.659834        -2.420814
 O        -2.107225         0.379876        -1.923901
 C        -1.042978        -0.129447        -1.184230
 H         0.943055        -0.195140         0.342909
 H        -2.950979         0.307129         0.705427
 H        -1.887065         0.483917         2.225829
 H        -0.877255         2.446005         1.359856
 H        -2.914776         3.595297         0.221192
 H        -2.556669         3.646660        -2.198129
 H        -2.280106         1.614067        -3.397322
 H        -0.691834         1.772024        -2.460907
 H        -1.180020        -1.235616        -1.044163
 H        -0.067002         0.219385        -1.663075
