19
Iteration:  1926charge 0 multiplicity 1
 O         0.254300         0.051851         0.934447
 C        -0.993502         0.462474         0.304320
 C        -2.157389         0.603451         1.174510
 C        -1.475033         1.860147         0.613525
 C        -2.229228         2.825168        -0.308469
 C        -2.384058         2.772759        -1.644267
 C        -1.779751         1.701314        -2.499969
 O        -2.122622         0.412721        -1.915081
 C        -1.079183        -0.052646        -1.069357
 H         0.948741         0.210799         0.192841
 H        -3.203386         0.537518         0.749525
 H        -1.985838         0.323028         2.212212
 H        -0.773498         2.371525         1.322253
 H        -2.396152         3.862941         0.143799
 H        -3.193704         3.491065        -2.027366
 H        -2.119907         1.793262        -3.582875
 H        -0.663581         1.917114        -2.404785
 H        -1.278141        -1.111290        -1.024360
 H        -0.083230         0.018378        -1.511447
