19
Iteration:  1902
 O         0.167513        -0.032191         0.971691
 C        -0.953567         0.604775         0.189498
 C        -2.078805         0.673141         1.166593
 C        -1.468682         1.959333         0.601421
 C        -2.311246         2.864815        -0.284905
 C        -2.332995         2.817362        -1.582814
 C        -1.804438         1.696590        -2.393385
 O        -2.093662         0.322212        -1.927561
 C        -1.032657        -0.165267        -1.178929
 H         0.894486        -0.113264         0.359509
 H        -3.146880         0.482714         0.788041
 H        -1.824323         0.481529         2.250869
 H        -1.005259         2.428718         1.452489
 H        -3.017306         3.578187         0.209694
 H        -2.910875         3.628047        -2.066571
 H        -2.321010         1.779790        -3.304568
 H        -0.725174         1.907363        -2.612299
 H        -1.069997        -1.295784        -1.130192
 H        -0.083768        -0.005910        -1.640942
