19
Iteration:  1609charge 0 multiplicity 1
 O         0.228478         0.037887         0.921794
 C        -0.938213         0.575181         0.340575
 C        -2.363629         0.511154         0.995778
 C        -1.457717         1.903393         0.696539
 C        -1.927614         2.945331        -0.258200
 C        -2.236186         2.771951        -1.574155
 C        -2.106125         1.560658        -2.560444
 O        -2.108597         0.342984        -1.879505
 C        -0.948708         0.016959        -1.087230
 H         0.920276         0.684430         0.850422
 H        -3.084483         0.328416         0.196534
 H        -2.432977         0.193629         2.031371
 H        -1.163862         2.274773         1.695159
 H        -2.166975         3.902921         0.183975
 H        -2.783423         3.569987        -1.999853
 H        -2.975164         1.399782        -3.215864
 H        -1.256346         1.692205        -3.230490
 H        -0.997972        -1.119876        -1.140681
 H        -0.049859         0.482569        -1.456931
