19
Iteration:  3411charge 0 multiplicity 1
 O         0.312810         0.145881         0.931169
 C        -1.029523         0.441480         0.306645
 C        -2.277479         0.502049         1.120469
 C        -1.554788         1.839168         0.682354
 C        -2.018029         2.903835        -0.269795
 C        -2.281800         2.772452        -1.612149
 C        -1.939485         1.685303        -2.496117
 O        -2.149289         0.380616        -1.958199
 C        -1.023906        -0.080856        -1.114707
 H         0.942284         0.901735         0.583848
 H        -3.184475         0.209900         0.562828
 H        -2.321910         0.149357         2.185672
 H        -1.000490         2.218904         1.527785
 H        -2.356631         3.869258         0.195148
 H        -2.542711         3.779662        -1.966581
 H        -2.456675         1.841259        -3.383063
 H        -0.841931         1.745088        -2.795448
 H        -1.086814        -1.167932        -1.049367
 H        -0.084635         0.185816        -1.607569
