19
Iteration:  4980charge 0 multiplicity 1
 O         0.125219         0.014206         1.117289
 C        -0.902607         0.483679         0.293288
 C        -2.156630         0.563296         1.016330
 C        -1.433301         1.865472         0.567219
 C        -2.168499         2.876306        -0.222752
 C        -2.366998         2.855678        -1.571172
 C        -2.037669         1.703861        -2.570088
 O        -2.070695         0.381315        -1.935856
 C        -0.887626        -0.043807        -1.154025
 H         0.987352         0.071263         0.802987
 H        -2.953373         0.215211         0.430779
 H        -2.110347         0.411127         2.023270
 H        -0.965415         2.174056         1.452341
 H        -2.672767         3.683666         0.389256
 H        -2.832168         3.825974        -1.940494
 H        -2.811395         1.719367        -3.432697
 H        -1.081230         1.878876        -2.999060
 H        -0.928162        -1.189064        -1.160856
 H         0.117899         0.149166        -1.548119
