19
Iteration:  3645
 O         0.250426         0.053519         1.096524
 C        -0.982691         0.449996         0.382800
 C        -2.372846         0.489515         0.894860
 C        -1.619873         1.792578         0.703026
 C        -1.782395         2.904285        -0.297864
 C        -2.118989         2.819622        -1.611951
 C        -2.431912         1.567686        -2.521498
 O        -2.038703         0.270862        -1.910990
 C        -0.802862         0.245991        -1.169018
 H         0.913647         0.815164         1.030538
 H        -3.096656         0.225137         0.099275
 H        -2.557253         0.258688         1.940408
 H        -1.192150         2.223639         1.705689
 H        -1.536120         3.842567         0.180441
 H        -2.427119         3.681631        -2.248363
 H        -3.492341         1.529393        -2.793201
 H        -1.930481         1.672032        -3.533188
 H        -0.372718        -0.807512        -1.187575
 H        -0.168134         1.042961        -1.498573
