19
Iteration:   636charge 0 multiplicity 1
 O         0.193271         0.062259         1.027469
 C        -0.958629         0.508295         0.306263
 C        -2.244978         0.633645         1.098755
 C        -1.456667         1.935990         0.658003
 C        -2.037503         2.957222        -0.301166
 C        -2.491916         2.792526        -1.516271
 C        -2.003034         1.716538        -2.374113
 O        -2.068222         0.236170        -2.105708
 C        -0.869785        -0.086789        -1.159237
 H         0.684361        -0.637147         0.473805
 H        -3.140025         0.430497         0.508177
 H        -2.220855         0.278565         2.146176
 H        -0.890794         2.439826         1.494438
 H        -2.123484         4.021088         0.188248
 H        -3.099600         3.526668        -2.052464
 H        -2.583561         1.693597        -3.251877
 H        -0.960675         1.899425        -2.773242
 H        -0.822971        -1.198206        -1.115144
 H         0.089553         0.204066        -1.690416
