19
Iteration:  1897
 O         0.168913        -0.030223         0.978126
 C        -0.946489         0.570669         0.189180
 C        -2.109165         0.674611         1.140628
 C        -1.467424         1.947277         0.625211
 C        -2.314514         2.876753        -0.287528
 C        -2.292421         2.869557        -1.601612
 C        -1.841727         1.727565        -2.386363
 O        -2.078194         0.290733        -1.948174
 C        -1.014715        -0.168688        -1.141047
 H         0.940257        -0.004048         0.347029
 H        -3.144252         0.594179         0.994365
 H        -1.839964         0.419197         2.136269
 H        -0.959124         2.532391         1.422474
 H        -2.908160         3.569200         0.273145
 H        -3.239006         3.376200        -1.942795
 H        -2.345915         1.904148        -3.403003
 H        -0.817761         1.831416        -2.753106
 H        -1.101606        -1.266206        -1.043633
 H        -0.013884        -0.176643        -1.749795
