19
Iteration:  4126charge 0 multiplicity 1
 O        -0.035983        -0.073634         1.105554
 C        -1.020217         0.466215         0.275283
 C        -2.223811         0.743111         0.996191
 C        -1.325252         1.945842         0.645105
 C        -1.963989         2.869926        -0.294211
 C        -2.474959         2.738440        -1.484690
 C        -2.187501         1.576489        -2.422119
 O        -1.921348         0.254407        -2.001083
 C        -0.761503         0.159114        -1.209086
 H         0.898566         0.031584         0.641492
 H        -3.097915         0.731535         0.318447
 H        -2.294208         0.249193         1.995211
 H        -0.641736         2.414140         1.411344
 H        -2.206110         3.807724         0.259824
 H        -2.918844         3.598640        -2.140444
 H        -3.012026         1.199752        -3.037678
 H        -1.426099         1.872807        -3.150832
 H        -0.258674        -0.723186        -1.241848
 H        -0.057895         0.846749        -1.576140
