19
Iteration:  4991charge 0 multiplicity 1
 O         0.184283         0.033969         1.019245
 C        -0.933522         0.541862         0.271627
 C        -2.205936         0.459370         1.022321
 C        -1.513470         1.883337         0.671444
 C        -2.119604         2.887088        -0.247456
 C        -2.338568         2.771382        -1.576107
 C        -2.007337         1.671218        -2.504975
 O        -2.022134         0.428605        -1.920620
 C        -0.968651        -0.024730        -1.118501
 H         0.924509         0.332446         0.441036
 H        -3.072261         0.291636         0.448325
 H        -2.285897         0.240742         2.030793
 H        -0.948972         2.331327         1.442235
 H        -2.453010         3.827240         0.284611
 H        -2.632258         3.650507        -2.216150
 H        -2.604003         1.597410        -3.468857
 H        -1.035863         1.842966        -2.870494
 H        -1.188866        -1.125584        -1.018870
 H        -0.067499         0.256458        -1.642042
