19
Iteration:   928charge 0 multiplicity 1
 O         0.104550        -0.028799         0.974686
 C        -0.901537         0.622718         0.244272
 C        -2.243537         0.473664         0.953149
 C        -1.658446         1.816401         0.722945
 C        -1.811636         2.862166        -0.351691
 C        -2.158695         2.734978        -1.649595
 C        -2.399791         1.541935        -2.475957
 O        -2.061910         0.358961        -1.746221
 C        -0.744668         0.274937        -1.171485
 H         0.359158         0.572466         1.749135
 H        -3.151122         0.138666         0.483770
 H        -1.993052        -0.037229         1.893092
 H        -1.234960         2.374258         1.622942
 H        -1.566636         3.917454         0.038694
 H        -1.990332         3.684338        -2.242420
 H        -3.491113         1.388968        -2.836679
 H        -1.856215         1.706049        -3.442731
 H        -0.541665        -0.860173        -1.229414
 H        -0.012358         0.826440        -1.726886
