19
Iteration:  1407
 O         0.185628        -0.065604         1.079786
 C        -0.905898         0.511192         0.318401
 C        -2.142868         0.549062         1.025575
 C        -1.532254         1.895785         0.573974
 C        -2.117731         2.872911        -0.284163
 C        -2.183162         2.917710        -1.631433
 C        -2.076276         1.659145        -2.575489
 O        -2.186337         0.299801        -1.827841
 C        -0.922689         0.063030        -1.155874
 H         1.060503         0.333738         1.016252
 H        -3.134947         0.218102         0.663966
 H        -2.090660         0.392521         2.185340
 H        -1.016470         2.350186         1.380593
 H        -2.484242         3.700227         0.243057
 H        -2.598773         3.883519        -2.075769
 H        -2.972807         1.430201        -3.276641
 H        -1.216495         1.489721        -3.187395
 H        -0.574351        -0.934819        -1.253707
 H        -0.207971         0.678604        -1.751210
