19
Iteration:   243
 O         0.007895         0.022137         0.944465
 C        -1.037140         0.501271         0.192776
 C        -2.150541         0.693308         1.170782
 C        -1.289786         1.891345         0.596726
 C        -2.176828         2.785863        -0.140310
 C        -2.433634         2.786557        -1.486543
 C        -1.965887         1.694040        -2.464751
 O        -1.947778         0.333171        -2.054820
 C        -0.899161        -0.029041        -1.190292
 H         0.737498         0.599954         0.956925
 H        -3.145010         0.578106         0.707039
 H        -1.977898         0.193079         2.138707
 H        -0.742459         2.369715         1.375667
 H        -2.593558         3.578386         0.536610
 H        -3.378485         3.295307        -1.738085
 H        -2.601064         1.723199        -3.337113
 H        -0.971664         1.859323        -2.964490
 H        -0.769091        -1.114634        -1.120213
 H         0.099113         0.270828        -1.714204
