19
Iteration:  3818charge 0 multiplicity 1
 O         0.309355         0.230389         0.893277
 C        -0.950577         0.421835         0.314874
 C        -2.240474         0.492211         1.148385
 C        -1.652948         1.749695         0.647005
 C        -2.197772         2.889531        -0.324541
 C        -2.212985         2.949456        -1.684582
 C        -1.836735         1.649710        -2.419079
 O        -2.152576         0.412374        -1.863607
 C        -1.045855        -0.205599        -1.093151
 H         0.860938         0.800199         0.431497
 H        -3.125747         0.236390         0.570559
 H        -2.164737         0.234287         2.195053
 H        -0.956826         2.256615         1.407843
 H        -2.356265         3.785964         0.183833
 H        -2.434803         3.884398        -2.251416
 H        -2.358122         1.700413        -3.408873
 H        -0.720295         1.747509        -2.565463
 H        -1.263371        -1.260904        -1.161224
 H        -0.160751        -0.108035        -1.717430
