19
Iteration:  2733charge 0 multiplicity 1
 O         0.200710         0.081094         0.866245
 C        -0.976707         0.507854         0.300948
 C        -2.216024         0.635850         1.199029
 C        -1.415108         1.901836         0.614303
 C        -2.135138         2.928165        -0.233307
 C        -2.454476         2.754487        -1.588598
 C        -1.826852         1.739461        -2.475271
 O        -2.065259         0.251348        -2.018797
 C        -1.077516        -0.143976        -1.102059
 H         0.868147         0.829492         0.953487
 H        -3.245439         0.633712         0.698918
 H        -2.134472         0.229524         2.229975
 H        -0.764577         2.419397         1.451843
 H        -2.635736         3.671770         0.412217
 H        -2.768775         3.619531        -2.156248
 H        -2.164392         1.771821        -3.506198
 H        -0.707470         1.808008        -2.515546
 H        -1.114854        -1.261166        -0.972664
 H        -0.097203        -0.009851        -1.521929
