19
Iteration:  2614
 O         0.211036         0.058417         0.945932
 C        -0.935103         0.520119         0.307440
 C        -2.183580         0.583390         1.127178
 C        -1.570088         1.960301         0.760464
 C        -2.056625         2.921821        -0.262386
 C        -2.237991         2.683522        -1.578794
 C        -2.006806         1.626492        -2.532930
 O        -2.099669         0.314512        -2.007102
 C        -1.023443        -0.012214        -1.150912
 H         0.916654         0.662657         0.923560
 H        -3.044405         0.267436         0.457112
 H        -2.170381         0.193503         2.225159
 H        -0.990092         2.501813         1.667012
 H        -2.534419         3.886191        -0.000119
 H        -2.715663         3.580356        -2.024858
 H        -2.715607         1.562610        -3.400337
 H        -1.032730         1.770178        -2.924550
 H        -1.006972        -1.132989        -1.110944
 H        -0.139658         0.257386        -1.652709
