19
Iteration:  3787
 O         0.186528         0.123052         0.986856
 C        -0.931567         0.533899         0.297486
 C        -2.260114         0.506099         1.078585
 C        -1.545298         1.839610         0.742485
 C        -2.036324         2.862566        -0.292164
 C        -2.232684         2.794880        -1.626647
 C        -1.951786         1.601251        -2.543086
 O        -2.141148         0.366899        -1.921764
 C        -0.963889         0.015017        -1.127590
 H         0.913663         0.723454         0.530375
 H        -3.224302         0.237673         0.654294
 H        -2.120929         0.129113         2.097075
 H        -0.983221         2.258402         1.593600
 H        -2.370574         3.681755         0.208746
 H        -2.891918         3.506793        -2.110961
 H        -2.613561         1.742931        -3.357079
 H        -1.011684         1.598370        -3.027376
 H        -1.071339        -1.111103        -1.051949
 H        -0.107952         0.474619        -1.701526
