19
Iteration:  4281
 O         0.181082         0.137772         0.877871
 C        -1.055502         0.357986         0.319718
 C        -2.141964         0.675921         1.249510
 C        -1.517472         1.873965         0.686866
 C        -2.224526         2.800235        -0.272692
 C        -2.304638         2.780605        -1.634789
 C        -1.816378         1.686693        -2.467904
 O        -2.061155         0.412870        -1.985413
 C        -1.030028        -0.150618        -1.179774
 H         0.856460         0.717321         0.494047
 H        -3.134470         0.466792         0.913535
 H        -2.050399         0.349357         2.274609
 H        -0.747961         2.406919         1.268817
 H        -2.670936         3.734462         0.308607
 H        -2.837548         3.635282        -1.986399
 H        -2.209985         1.787223        -3.518029
 H        -0.658740         1.784900        -2.662224
 H        -1.240575        -1.106244        -1.037718
 H         0.040998         0.034246        -1.527733
