19
Iteration:   774
 O         0.298917         0.241593         0.957456
 C        -0.905507         0.486614         0.269442
 C        -2.245513         0.463599         1.178513
 C        -1.583198         1.775590         0.542901
 C        -2.106156         2.912316        -0.264955
 C        -2.142139         2.891174        -1.596338
 C        -1.906497         1.603321        -2.503631
 O        -2.279402         0.336265        -1.866680
 C        -1.047282        -0.118059        -1.163076
 H         0.793741         1.007937         0.776255
 H        -3.214157         0.058868         0.829447
 H        -2.054823         0.420234         2.256948
 H        -1.191868         2.190081         1.451147
 H        -2.069081         3.843751         0.190625
 H        -2.442107         3.799783        -2.100412
 H        -2.607940         1.780405        -3.408390
 H        -0.849447         1.636322        -2.838446
 H        -1.167984        -1.263854        -1.198852
 H        -0.093255         0.026672        -1.741824
