19
Iteration:   206
 O         0.285329        -0.057246         0.966566
 C        -0.899866         0.554764         0.386044
 C        -2.237995         0.640428         1.170266
 C        -1.635501         1.933772         0.805598
 C        -2.089209         2.870842        -0.214467
 C        -2.380190         2.790620        -1.532017
 C        -2.091147         1.671708        -2.544675
 O        -1.989154         0.284301        -2.137964
 C        -0.901492         0.048908        -1.246459
 H         0.639870        -0.588789         0.284463
 H        -3.069911         0.297086         0.574801
 H        -2.304072         0.426746         2.231269
 H        -1.326953         2.301684         1.844908
 H        -1.985069         3.910967         0.061104
 H        -2.690638         3.712128        -2.077287
 H        -2.951146         1.662734        -3.200493
 H        -1.160915         1.931210        -2.985779
 H        -0.974091        -1.066738        -1.201145
 H         0.098675         0.565420        -1.460626
