19
Iteration:   668charge 0 multiplicity 1
 O         0.098207        -0.032344         1.078687
 C        -0.892526         0.489437         0.224808
 C        -2.150400         0.690263         1.061962
 C        -1.247283         1.961764         0.579419
 C        -2.232300         2.761610        -0.246103
 C        -2.510668         2.725234        -1.583802
 C        -1.939468         1.766814        -2.518100
 O        -2.005847         0.449502        -1.927668
 C        -0.948920        -0.153576        -1.133239
 H         0.890701         0.151811         0.620138
 H        -3.125051         0.809333         0.615165
 H        -2.094137         0.502931         2.149874
 H        -0.651247         2.548990         1.321855
 H        -2.729815         3.645410         0.319026
 H        -3.379872         3.293981        -1.916464
 H        -2.615155         1.697525        -3.343786
 H        -1.031134         2.017838        -2.994935
 H        -1.537573        -1.015397        -0.996767
 H         0.044569        -0.306249        -1.585469
