19
Iteration:  4514charge 0 multiplicity 1
 O         0.044916        -0.155335         1.009996
 C        -1.036083         0.500373         0.300283
 C        -2.257449         0.694802         0.983253
 C        -1.381630         1.932825         0.682562
 C        -1.982354         2.951588        -0.278178
 C        -2.399228         2.639621        -1.530409
 C        -2.193275         1.576810        -2.493456
 O        -1.919790         0.290482        -1.953804
 C        -0.772564         0.184521        -1.118864
 H         0.781416         0.426081         0.957440
 H        -3.237755         0.662572         0.494913
 H        -2.133574         0.256697         1.994952
 H        -0.793408         2.441734         1.490894
 H        -2.300501         4.150242         0.062827
 H        -2.764557         3.612608        -2.060636
 H        -3.104583         1.572981        -3.102735
 H        -1.571221         1.922184        -3.322843
 H        -0.509977        -0.842335        -1.104919
 H         0.089067         0.772029        -1.625532
