19
Iteration:   944
 O         0.245123         0.089537         1.061510
 C        -0.916712         0.473133         0.336008
 C        -2.280519         0.348576         0.934272
 C        -1.564548         1.843442         0.772786
 C        -1.790047         2.833341        -0.324245
 C        -2.096058         2.821296        -1.661651
 C        -2.394642         1.522934        -2.588690
 O        -2.182642         0.340576        -1.825167
 C        -0.883421         0.302262        -1.177325
 H         0.536040         0.745767         1.686750
 H        -3.139440         0.125510         0.247713
 H        -2.458778         0.196556         1.998112
 H        -1.309937         2.246372         1.725584
 H        -1.409605         3.787147        -0.038801
 H        -2.086190         3.722201        -2.225121
 H        -3.442360         1.519102        -2.984261
 H        -1.729142         1.513510        -3.498494
 H        -0.486539        -0.672920        -1.339034
 H        -0.176273         1.107960        -1.620584
