19
Iteration:   323
 O         0.364605         0.218581         0.768931
 C        -1.038843         0.409813         0.281392
 C        -2.200720         0.509425         1.172650
 C        -1.645413         1.850616         0.700243
 C        -2.304539         2.842483        -0.210592
 C        -2.127514         2.822937        -1.565009
 C        -1.863719         1.687528        -2.449895
 O        -2.140531         0.352088        -1.956642
 C        -0.998500        -0.097466        -1.193116
 H         0.413897         0.046345         1.689148
 H        -3.142310         0.368437         0.668197
 H        -2.154484         0.325920         2.251719
 H        -0.949767         2.353293         1.363300
 H        -2.623285         3.819331         0.166010
 H        -2.367891         3.770247        -2.058753
 H        -2.503572         1.918015        -3.342921
 H        -0.765048         1.728451        -2.550514
 H        -1.088352        -1.199564        -1.138759
 H        -0.068064         0.355357        -1.661321
