19
Iteration:  4317charge 0 multiplicity 1
 O         0.096337        -0.083387         1.061597
 C        -0.906387         0.517013         0.286161
 C        -2.086792         0.725453         1.039185
 C        -1.371545         2.012811         0.621816
 C        -2.172414         2.867360        -0.238015
 C        -2.526939         2.762048        -1.569185
 C        -1.904868         1.705421        -2.437135
 O        -2.019333         0.305933        -2.036009
 C        -0.976345        -0.057988        -1.121202
 H         0.898426         0.031396         0.527489
 H        -2.965524         0.485907         0.394075
 H        -2.107081         0.363034         2.087891
 H        -0.852180         2.556727         1.364725
 H        -2.844714         3.733797         0.230499
 H        -3.387926         3.338835        -1.945155
 H        -2.349745         1.777932        -3.462630
 H        -0.783497         2.001916        -2.471819
 H        -1.287046        -1.145174        -1.184044
 H        -0.022980        -0.171502        -1.705049
