19
Iteration:  3436charge 0 multiplicity 1
 O         0.184911         0.140920         0.923594
 C        -1.009397         0.443393         0.178573
 C        -2.142227         0.544067         1.268371
 C        -1.539316         1.822489         0.518586
 C        -2.285445         2.852377        -0.269493
 C        -2.230518         2.917783        -1.588035
 C        -1.788743         1.685040        -2.426433
 O        -2.087375         0.413553        -1.917176
 C        -1.065012        -0.181844        -1.149552
 H         0.958623         0.657047         0.537221
 H        -3.091163         0.145544         0.914592
 H        -1.811908         0.293898         2.256033
 H        -0.831170         2.279559         1.320841
 H        -2.550576         3.714002         0.324786
 H        -2.723163         3.738556        -2.047295
 H        -2.491000         1.803054        -3.320776
 H        -0.691583         1.681282        -2.706934
 H        -1.341779        -1.248581        -0.940811
 H        -0.079693        -0.012209        -1.606239
