19
Iteration:   735
 O         0.238510         0.191917         0.737533
 C        -0.991264         0.586825         0.279933
 C        -2.212861         0.511826         1.149641
 C        -1.526055         1.877906         0.681396
 C        -2.114830         2.855644        -0.214988
 C        -2.195222         2.766584        -1.555041
 C        -1.895022         1.646989        -2.525793
 O        -2.043427         0.346148        -1.984861
 C        -1.134036        -0.155758        -1.011528
 H         0.755656         0.948903         1.191069
 H        -3.202497         0.372110         0.703420
 H        -2.048104         0.302968         2.186082
 H        -1.037130         2.291730         1.626518
 H        -2.419454         3.809836         0.411735
 H        -2.755885         3.550579        -2.137384
 H        -2.623929         1.680058        -3.286114
 H        -0.992806         1.690922        -3.121147
 H        -1.563431        -0.985101        -0.541015
 H        -0.211388        -0.429368        -1.510395
