19
Iteration:  4538
 O        -0.007164        -0.088157         1.113133
 C        -0.887075         0.547894         0.314329
 C        -2.231560         0.741057         1.022712
 C        -1.341749         1.944768         0.733335
 C        -1.996975         2.837146        -0.256810
 C        -2.470007         2.728013        -1.525738
 C        -2.105990         1.619597        -2.489257
 O        -2.005200         0.199726        -2.028059
 C        -0.791049         0.133230        -1.280415
 H         0.988771        -0.002672         0.758100
 H        -2.991772         0.776754         0.298202
 H        -2.492286         0.542687         2.012450
 H        -0.958630         2.493332         1.574603
 H        -2.323647         3.868750         0.191406
 H        -3.257727         3.453645        -1.734471
 H        -2.858955         1.659955        -3.301871
 H        -1.194532         1.838129        -2.991238
 H        -0.609977        -0.902054        -1.235738
 H        -0.025398         0.772516        -1.923387
