19
Iteration:  2816charge 0 multiplicity 1
 O         0.156479         0.018870         1.046929
 C        -0.898029         0.564763         0.313929
 C        -2.333203         0.491012         0.861125
 C        -1.583247         1.822487         0.662673
 C        -1.850148         2.948668        -0.285425
 C        -2.287920         2.868773        -1.603254
 C        -2.218716         1.493870        -2.512840
 O        -2.106264         0.312579        -1.759143
 C        -0.767585         0.139609        -1.152230
 H         0.969498         0.555017         0.842788
 H        -3.221809         0.130215         0.252861
 H        -2.367669         0.287395         1.952768
 H        -1.112910         2.207543         1.524929
 H        -1.780613         3.982241         0.173031
 H        -2.785052         3.711351        -2.204181
 H        -3.161103         1.484041        -3.111973
 H        -1.215097         1.518036        -3.212628
 H        -0.697713        -0.930007        -1.213681
 H         0.018699         0.716572        -1.783096
