19
Iteration:  4302
 O         0.153587        -0.014642         1.005218
 C        -0.953377         0.553103         0.235859
 C        -2.164727         0.678848         1.154501
 C        -1.396835         1.888449         0.565988
 C        -2.217141         2.889853        -0.247502
 C        -2.462234         2.734426        -1.575211
 C        -1.839508         1.725758        -2.453901
 O        -2.034800         0.359795        -2.028500
 C        -1.040496        -0.128935        -1.118453
 H         0.997423         0.207141         0.644266
 H        -3.172844         0.478655         0.886156
 H        -2.008041         0.540211         2.205278
 H        -0.771553         2.374221         1.351613
 H        -2.730169         3.594068         0.477883
 H        -3.084389         3.490567        -2.009913
 H        -2.172477         1.705835        -3.496522
 H        -0.745010         1.848290        -2.698871
 H        -1.086133        -1.145862        -0.949696
 H        -0.054776         0.204949        -1.556042
