19
Iteration:  1698charge 0 multiplicity 1
 O         0.131195        -0.068703         1.054883
 C        -0.973374         0.494330         0.263302
 C        -2.324343         0.640338         0.857156
 C        -1.571106         1.949847         0.771576
 C        -1.821656         2.998541        -0.274216
 C        -2.278075         2.776121        -1.540027
 C        -2.457921         1.437610        -2.376088
 O        -1.905932         0.266905        -1.978736
 C        -0.718024         0.175135        -1.180238
 H         0.956963         0.284600         0.762827
 H        -3.259494         0.800554         0.259650
 H        -2.670934         0.363560         1.900351
 H        -0.997065         2.198886         1.620232
 H        -1.612977         3.927164         0.187468
 H        -2.194669         3.610181        -2.261504
 H        -3.559378         1.241076        -2.639066
 H        -1.965863         1.805207        -3.357765
 H        -0.471158        -0.955290        -1.148742
 H         0.092742         0.800640        -1.573130
