19
Iteration:   384
 O         0.360120         0.207401         0.981100
 C        -0.951849         0.479285         0.350486
 C        -2.327644         0.531862         1.038562
 C        -1.596434         1.771495         0.642500
 C        -2.116606         2.837013        -0.203762
 C        -2.178222         2.882736        -1.589412
 C        -2.045961         1.669791        -2.532627
 O        -2.096003         0.315490        -1.944811
 C        -0.976825        -0.007222        -1.106071
 H         0.893437         0.015835         0.239680
 H        -3.071974         0.139648         0.315349
 H        -2.498033         0.371013         2.125866
 H        -1.059200         2.109593         1.514420
 H        -2.297395         3.736576         0.372822
 H        -2.666859         3.752962        -2.010302
 H        -2.797820         1.557110        -3.301388
 H        -1.099638         1.817325        -3.191358
 H        -1.107069        -1.089530        -1.055693
 H        -0.009636         0.169906        -1.558363
