19
Iteration:  3882charge 0 multiplicity 1
 O         0.185863         0.086755         0.862801
 C        -1.034570         0.427054         0.304627
 C        -2.136547         0.695657         1.317720
 C        -1.505851         1.904478         0.629248
 C        -2.202308         2.897539        -0.262689
 C        -2.384740         2.759639        -1.555933
 C        -1.710973         1.692270        -2.420866
 O        -2.037653         0.373223        -2.120162
 C        -1.115127        -0.179194        -1.140919
 H         0.932504         0.383933         0.340578
 H        -3.130630         0.392558         0.954367
 H        -2.048699         0.692237         2.386818
 H        -0.746238         2.352196         1.386068
 H        -2.960893         3.506815         0.323570
 H        -3.222492         3.260951        -2.062474
 H        -2.034379         1.721676        -3.518732
 H        -0.589797         1.867085        -2.437933
 H        -1.189460        -1.225572        -1.085083
 H        -0.116689         0.240150        -1.410284
