19
Iteration:  3925
 O         0.035830        -0.072454         1.057272
 C        -0.906001         0.538036         0.286450
 C        -2.072677         0.791437         1.131213
 C        -1.340016         1.971853         0.631563
 C        -2.221673         2.863234        -0.253205
 C        -2.515155         2.698137        -1.532153
 C        -1.867763         1.775274        -2.489883
 O        -1.960153         0.353049        -2.074749
 C        -1.022492        -0.120949        -1.198175
 H         0.850458         0.004971         0.643758
 H        -3.004728         0.502371         0.662940
 H        -1.906167         0.343207         2.088557
 H        -0.626776         2.351766         1.436798
 H        -2.924432         3.522740         0.425598
 H        -3.464259         3.073803        -1.925047
 H        -2.367409         1.667926        -3.467556
 H        -0.872747         1.968178        -2.712315
 H        -1.433111        -1.068783        -0.973632
 H         0.073793        -0.134880        -1.590222
