19
Iteration:  4949charge 0 multiplicity 1
 O         0.041746        -0.089333         1.181337
 C        -0.936039         0.440684         0.232233
 C        -2.198127         0.662802         1.041199
 C        -1.303854         1.905144         0.578101
 C        -2.090306         2.874972        -0.266004
 C        -2.489103         2.761378        -1.530454
 C        -2.123853         1.641483        -2.525342
 O        -2.005977         0.405030        -1.930784
 C        -0.797484         0.043326        -1.263396
 H         0.936249         0.413947         1.070543
 H        -3.122160         0.581110         0.500345
 H        -2.203986         0.362241         2.046269
 H        -0.682261         2.279512         1.402928
 H        -2.546787         3.746512         0.277894
 H        -2.958627         3.638365        -1.926717
 H        -2.942824         1.555824        -3.371572
 H        -1.072234         1.980133        -2.912670
 H        -0.741629        -1.120846        -1.422172
 H         0.208799         0.468414        -1.642801
