19
Iteration:  2832
 O         0.170915         0.039063         1.101144
 C        -0.978823         0.414395         0.310704
 C        -2.299812         0.529236         0.870458
 C        -1.473415         1.838973         0.645096
 C        -1.837243         2.908926        -0.362332
 C        -2.299324         2.759006        -1.609959
 C        -2.299512         1.595872        -2.420483
 O        -2.062822         0.294670        -1.829217
 C        -0.829292         0.194936        -1.170403
 H         0.670996         0.925601         1.249104
 H        -3.064770         0.455637         0.158862
 H        -2.519195         0.123301         1.838534
 H        -1.145202         2.229887         1.681959
 H        -1.691700         3.908877        -0.041207
 H        -2.388030         3.648113        -2.158744
 H        -3.210942         1.414023        -2.962979
 H        -1.494200         1.776457        -3.174257
 H        -0.310599        -0.797462        -1.340760
 H        -0.182572         0.988417        -1.528949
