19
Iteration:   815charge 0 multiplicity 1
 O         0.302304        -0.060878         1.040599
 C        -0.906695         0.572056         0.313762
 C        -2.299285         0.631044         1.040495
 C        -1.513727         1.925122         0.678001
 C        -2.133898         2.835611        -0.304116
 C        -2.260456         2.797153        -1.621670
 C        -2.093320         1.619085        -2.592103
 O        -2.092224         0.388428        -1.841070
 C        -0.938409         0.033475        -1.114486
 H         1.034505        -0.182112         0.327763
 H        -3.090494         0.150646         0.411035
 H        -2.301942         0.408373         2.121928
 H        -1.081878         2.417566         1.512563
 H        -2.352000         3.756222         0.130192
 H        -2.647003         3.645510        -2.154647
 H        -3.008886         1.461777        -3.183607
 H        -1.164016         1.690530        -3.209481
 H        -0.751594        -1.064032        -1.079142
 H        -0.062141         0.434529        -1.635999
