19
Iteration:   517
 O         0.277105         0.027086         1.004690
 C        -0.908959         0.535205         0.311929
 C        -2.297008         0.602278         0.878884
 C        -1.541973         1.857894         0.734905
 C        -2.017904         2.847487        -0.277561
 C        -2.101401         2.792604        -1.586570
 C        -2.308872         1.511007        -2.434708
 O        -2.088920         0.246099        -1.883540
 C        -0.832108         0.232824        -1.208742
 H         0.132300         0.102588         1.919453
 H        -3.079726         0.458326         0.112386
 H        -2.602062         0.250878         1.878033
 H        -1.305899         2.393801         1.649383
 H        -2.093781         3.886351         0.173485
 H        -2.172416         3.739821        -2.101980
 H        -3.315624         1.486653        -2.867842
 H        -1.671534         1.626640        -3.261083
 H        -0.458098        -0.748085        -1.445727
 H        -0.150279         0.793082        -1.788873
