19
Iteration:  1637
 O         0.082341        -0.168229         1.067635
 C        -0.858190         0.532627         0.269234
 C        -2.201133         0.628395         0.963272
 C        -1.506220         1.921043         0.652504
 C        -2.032214         2.867773        -0.332948
 C        -2.290682         2.824820        -1.631193
 C        -2.238397         1.562074        -2.437182
 O        -2.057175         0.338588        -1.812370
 C        -0.791174         0.134302        -1.200490
 H         0.821825         0.367357         1.256210
 H        -3.104778         0.578963         0.419872
 H        -2.142707         0.365773         2.020380
 H        -1.161880         2.461536         1.561637
 H        -2.008429         3.917458         0.050280
 H        -2.550957         3.737901        -2.239827
 H        -3.171450         1.297890        -3.005891
 H        -1.478245         1.758839        -3.250137
 H        -0.434609        -0.840111        -1.517542
 H         0.026748         0.883525        -1.548624
