19
Iteration:   611
 O         0.148509         0.218130         0.866678
 C        -1.018714         0.562382         0.239761
 C        -2.289173         0.630746         1.049769
 C        -1.472374         1.834652         0.687588
 C        -2.032219         2.853308        -0.175372
 C        -2.245173         2.726535        -1.496292
 C        -1.993363         1.566183        -2.491526
 O        -2.103267         0.299401        -1.920909
 C        -0.878057         0.064696        -1.129093
 H         0.252664        -0.796173         0.788038
 H        -3.198914         0.411961         0.486184
 H        -2.153407         0.077980         1.978237
 H        -0.895507         2.232204         1.466588
 H        -2.297558         3.734661         0.324856
 H        -2.568788         3.573162        -2.044707
 H        -2.862162         1.424170        -3.191503
 H        -1.103455         1.617102        -3.109797
 H        -0.606193        -0.992838        -1.239201
 H         0.042007         0.506975        -1.585577
