19
Iteration:  4290
 O         0.198504         0.056001         0.952351
 C        -1.046336         0.449172         0.257539
 C        -2.197825         0.673984         1.247739
 C        -1.469636         1.923613         0.591380
 C        -2.226341         2.794200        -0.247458
 C        -2.385786         2.777443        -1.548127
 C        -1.766625         1.705318        -2.513888
 O        -2.047641         0.367972        -1.969970
 C        -1.028795        -0.121482        -1.168566
 H         0.848495         0.576434         0.465300
 H        -3.205501         0.556793         0.872164
 H        -1.871329         0.384619         2.228027
 H        -0.737138         2.430508         1.319280
 H        -2.526360         3.735535         0.155027
 H        -2.998057         3.527683        -2.127431
 H        -2.398359         1.782702        -3.404249
 H        -0.681907         1.931429        -2.554158
 H        -1.188471        -1.204634        -1.226569
 H        -0.018139        -0.014789        -1.646410
