19
Iteration:  1164
 O         0.294299         0.168377         0.902373
 C        -0.933175         0.467443         0.256120
 C        -2.037513         0.488869         1.204598
 C        -1.657965         1.857050         0.560007
 C        -2.297280         2.862665        -0.316946
 C        -2.127624         2.911803        -1.614494
 C        -1.732707         1.649517        -2.486018
 O        -2.262386         0.427221        -1.867382
 C        -1.156088        -0.190586        -1.066771
 H         1.018615         0.705359         0.580319
 H        -2.950522         0.103818         0.703339
 H        -1.835619         0.279076         2.253547
 H        -1.298566         2.364979         1.516417
 H        -2.732920         3.849104         0.097364
 H        -2.527563         3.751372        -2.185135
 H        -2.372484         1.697080        -3.445615
 H        -0.708396         1.581427        -2.855100
 H        -1.523383        -1.171309        -0.909332
 H        -0.090663        -0.326090        -1.531284
