19
Iteration:  3409charge 0 multiplicity 1
 O         0.330905         0.141049         0.940325
 C        -1.042249         0.460982         0.308274
 C        -2.286224         0.505096         1.115374
 C        -1.538133         1.834877         0.691105
 C        -2.022433         2.923183        -0.265309
 C        -2.277679         2.746747        -1.617937
 C        -1.937165         1.662643        -2.487946
 O        -2.150769         0.387893        -1.963753
 C        -1.029683        -0.057414        -1.114920
 H         0.947894         0.851479         0.623581
 H        -3.161601         0.199422         0.525671
 H        -2.387719         0.044696         2.160374
 H        -1.037286         2.138999         1.563471
 H        -2.304940         3.926365         0.200594
 H        -2.597202         3.794592        -1.972341
 H        -2.489113         1.832605        -3.392754
 H        -0.891699         1.742300        -2.905719
 H        -1.097825        -1.145736        -1.098214
 H        -0.076298         0.158396        -1.650859
