19
Iteration:  3024charge 0 multiplicity 1
 O         0.150372         0.183313         0.948505
 C        -0.954849         0.569291         0.215012
 C        -2.135429         0.557079         1.128048
 C        -1.549584         1.852299         0.666286
 C        -2.076771         2.899854        -0.212812
 C        -2.212085         2.827086        -1.559566
 C        -1.919915         1.599096        -2.416392
 O        -2.108920         0.281196        -2.015170
 C        -1.104573        -0.132284        -1.176924
 H         0.895810         0.690971         0.651584
 H        -3.166449         0.349698         0.803844
 H        -1.900243         0.148158         2.128492
 H        -0.974269         2.370161         1.494582
 H        -2.510733         3.716671         0.299281
 H        -2.504826         3.745879        -2.022162
 H        -2.598044         1.737451        -3.334000
 H        -0.844448         1.670340        -2.677030
 H        -1.178275        -1.195247        -1.002337
 H        -0.262099         0.184203        -1.781006
