19
Iteration:  1930
 O         0.282801         0.059795         0.933516
 C        -1.010756         0.486400         0.306241
 C        -2.192263         0.581784         1.196403
 C        -1.467673         1.864652         0.606671
 C        -2.174719         2.812948        -0.307896
 C        -2.393640         2.794730        -1.663752
 C        -1.783301         1.733803        -2.494271
 O        -2.114511         0.411442        -1.919247
 C        -1.100142        -0.101490        -1.080643
 H         0.905668         0.299314         0.279164
 H        -3.131500         0.561243         0.750463
 H        -2.011793         0.361308         2.233333
 H        -0.851475         2.268394         1.422993
 H        -2.505083         3.771415         0.059492
 H        -3.197737         3.424600        -2.023306
 H        -2.236721         1.727814        -3.562706
 H        -0.680145         1.949589        -2.419993
 H        -1.308857        -1.170480        -1.003159
 H        -0.022021         0.113451        -1.495739
