19
Iteration:   916
 O         0.121178        -0.081076         0.967681
 C        -0.907778         0.584030         0.295930
 C        -2.316544         0.532932         0.918430
 C        -1.563830         1.934569         0.691098
 C        -1.937375         2.862113        -0.342303
 C        -2.149803         2.787696        -1.650977
 C        -2.350207         1.530635        -2.332103
 O        -2.007471         0.319636        -1.798448
 C        -0.756575         0.210927        -1.245794
 H         0.516365         0.350950         1.675274
 H        -3.117148         0.169402         0.284822
 H        -2.251288         0.209309         1.989353
 H        -1.182831         2.376989         1.670385
 H        -1.830031         3.940601        -0.042080
 H        -2.385090         3.717675        -2.287139
 H        -3.498003         1.466347        -2.461809
 H        -1.806357         1.535271        -3.309898
 H        -0.256410        -0.839338        -1.320867
 H        -0.035265         0.854554        -1.694797
