19
Iteration:  2447
 O         0.132553         0.046052         1.196051
 C        -0.878728         0.496535         0.244218
 C        -2.234629         0.514703         0.812926
 C        -1.475648         1.865604         0.609253
 C        -1.946562         2.918871        -0.278061
 C        -2.319090         2.815747        -1.588057
 C        -2.337104         1.546571        -2.449993
 O        -2.056131         0.353218        -1.857674
 C        -0.782672         0.047518        -1.176463
 H         0.767534         0.754455         1.189935
 H        -3.107743         0.454775         0.287884
 H        -2.095725         0.180741         1.808499
 H        -1.197451         2.249049         1.535416
 H        -1.865605         3.925983         0.070940
 H        -2.289074         3.778565        -2.081793
 H        -3.347779         1.472636        -2.905180
 H        -1.535578         1.808972        -3.222492
 H        -0.689625        -1.055632        -1.233571
 H         0.015320         0.489542        -1.719246
