19
Iteration:  3274
 O         0.001674         0.004630         1.022566
 C        -0.969999         0.499897         0.236971
 C        -2.312707         0.597573         0.861503
 C        -1.474474         1.885329         0.652009
 C        -1.970125         2.970851        -0.185437
 C        -2.049933         2.800801        -1.520806
 C        -2.418058         1.470663        -2.371153
 O        -1.939943         0.214232        -1.919642
 C        -0.724591         0.232498        -1.200587
 H         0.741300         0.562759         0.887242
 H        -3.196007         0.513577         0.283717
 H        -2.172060         0.186485         1.836430
 H        -0.987694         2.061556         1.676681
 H        -2.021670         3.943234         0.279323
 H        -2.132560         3.599807        -2.200859
 H        -3.575799         1.372628        -2.411777
 H        -2.120860         1.681891        -3.416614
 H        -0.383460        -0.850555        -1.316047
 H         0.086286         0.847765        -1.709323
