19
Iteration:  4225charge 0 multiplicity 1
 O         0.285626         0.299738         0.888080
 C        -0.983938         0.554186         0.262152
 C        -2.212315         0.392584         1.121350
 C        -1.643041         1.839551         0.657882
 C        -2.156357         2.842789        -0.279860
 C        -2.153774         2.866422        -1.590234
 C        -1.750706         1.666470        -2.494545
 O        -2.206629         0.372671        -1.852503
 C        -1.151218        -0.191885        -1.098264
 H         1.102781         0.748344         0.384455
 H        -3.071053         0.112169         0.491474
 H        -2.138569        -0.021376         2.117514
 H        -1.046649         2.379155         1.482291
 H        -2.520524         3.818571         0.336446
 H        -2.329729         3.889367        -2.139618
 H        -2.321234         1.574433        -3.454918
 H        -0.688192         1.410543        -2.888410
 H        -1.358555        -1.199917        -0.881941
 H        -0.098359        -0.182438        -1.732388
