19
Iteration:  4511
 O         0.033895        -0.148231         0.997633
 C        -1.029839         0.482022         0.319625
 C        -2.239208         0.672121         1.004271
 C        -1.401458         1.918785         0.686391
 C        -2.002379         2.963999        -0.299393
 C        -2.371787         2.672894        -1.540305
 C        -2.193794         1.585957        -2.473917
 O        -1.918539         0.288777        -1.943032
 C        -0.771290         0.189930        -1.152904
 H         0.839469         0.529133         1.014217
 H        -3.227560         0.688109         0.464841
 H        -2.205577         0.253906         2.064497
 H        -0.863308         2.465469         1.471793
 H        -2.240589         4.087945        -0.071107
 H        -2.718717         3.596085        -2.032554
 H        -3.148820         1.569991        -3.015408
 H        -1.695615         1.911052        -3.417765
 H        -0.422937        -0.939535        -1.106990
 H         0.140787         0.665342        -1.544947
