19
Iteration:  1626charge 0 multiplicity 1
 O         0.119117        -0.136627         0.976143
 C        -0.946789         0.545391         0.302013
 C        -2.240341         0.569970         0.947179
 C        -1.495466         1.910986         0.671222
 C        -1.955808         2.932103        -0.329930
 C        -2.287415         2.793828        -1.658631
 C        -2.197097         1.585326        -2.484476
 O        -2.037417         0.318693        -1.779030
 C        -0.809124         0.167294        -1.125039
 H         0.803949         0.529396         1.108804
 H        -3.138696         0.284470         0.434301
 H        -2.247966         0.278356         2.002635
 H        -0.985366         2.351683         1.546891
 H        -2.343640         3.856181         0.157979
 H        -2.774741         3.728777        -2.084320
 H        -3.200453         1.587667        -3.008681
 H        -1.379577         1.606202        -3.260609
 H        -0.704616        -0.882530        -0.906996
 H         0.036437         0.599554        -1.786997
