19
Iteration:  2073
 O         0.062089        -0.047858         1.165473
 C        -0.892265         0.534915         0.227534
 C        -2.236199         0.623947         0.867783
 C        -1.444698         1.929049         0.678445
 C        -1.953415         2.901641        -0.246359
 C        -2.292605         2.797724        -1.557881
 C        -2.311321         1.517310        -2.501754
 O        -2.066995         0.238880        -1.869419
 C        -0.719587         0.142422        -1.226719
 H         0.739849         0.592578         1.277392
 H        -3.123956         0.502453         0.197693
 H        -2.393143         0.070307         1.805269
 H        -0.883713         2.436564         1.436963
 H        -1.678280         3.894772         0.050918
 H        -2.471138         3.737147        -1.956351
 H        -3.472022         1.536606        -2.764510
 H        -1.726071         1.645298        -3.326894
 H        -0.304185        -0.818514        -1.330034
 H        -0.223813         0.890205        -1.789322
