19
Iteration:  4467charge 0 multiplicity 1
 O         0.142273         0.103479         1.131221
 C        -0.934552         0.505628         0.338852
 C        -2.225379         0.398572         0.894554
 C        -1.558823         1.849416         0.740067
 C        -1.895161         2.898053        -0.311210
 C        -2.116441         2.765581        -1.626768
 C        -2.298089         1.587152        -2.477531
 O        -2.099094         0.347094        -1.907688
 C        -0.875033         0.129788        -1.181080
 H         0.911239         0.792117         1.027070
 H        -2.923243         0.206549         0.047053
 H        -2.585369         0.172019         1.911017
 H        -1.240420         2.231058         1.691218
 H        -1.627427         3.914976         0.150508
 H        -2.334037         3.609663        -2.228537
 H        -3.326830         1.654504        -2.880294
 H        -1.790171         1.728913        -3.441896
 H        -0.573130        -0.978622        -1.419729
 H        -0.174170         0.763892        -1.722769
