19
Iteration:  1416charge 0 multiplicity 1
 O         0.142168        -0.112984         1.013140
 C        -0.922724         0.505365         0.274731
 C        -2.165070         0.612088         1.116242
 C        -1.464578         1.920740         0.602011
 C        -2.165657         2.912061        -0.290080
 C        -2.258479         2.907389        -1.624072
 C        -2.056861         1.617145        -2.597843
 O        -2.130849         0.321074        -1.815071
 C        -0.866165         0.010307        -1.149633
 H         0.937557         0.428098         0.856726
 H        -3.147205         0.373164         0.685153
 H        -1.920125         0.147891         2.102304
 H        -1.050499         2.440513         1.456442
 H        -2.581493         3.801449         0.162806
 H        -2.753821         3.766567        -2.000914
 H        -2.837865         1.738643        -3.432096
 H        -1.110631         1.492563        -3.019883
 H        -0.702663        -1.047335        -1.173790
 H        -0.038101         0.621082        -1.556370
