19
Iteration:  4926
 O         0.098623        -0.140720         1.017170
 C        -0.947304         0.590372         0.281669
 C        -2.263423         0.642324         0.962010
 C        -1.418522         1.946022         0.713633
 C        -1.951154         2.860882        -0.298320
 C        -2.443002         2.732172        -1.522790
 C        -2.109174         1.631441        -2.470407
 O        -1.988957         0.270066        -1.980705
 C        -0.875579         0.153076        -1.143881
 H         0.898538         0.313791         0.950877
 H        -3.144831         0.618356         0.398572
 H        -2.275649         0.345054         1.940706
 H        -0.933337         2.308281         1.561042
 H        -2.170189         3.869024         0.188356
 H        -3.199354         3.475818        -1.860286
 H        -3.035999         1.597225        -3.198456
 H        -1.117219         1.956797        -2.992687
 H        -0.564990        -0.981766        -1.088484
 H         0.071486         0.661652        -1.524782
