19
Iteration:  2981
 O         0.295303         0.022997         0.959254
 C        -0.970770         0.464309         0.317188
 C        -2.311927         0.588818         0.964128
 C        -1.539155         1.798478         0.669688
 C        -1.993296         2.803421        -0.312834
 C        -2.265815         2.830981        -1.674424
 C        -2.107609         1.657843        -2.484069
 O        -2.100364         0.346407        -1.815039
 C        -0.917669         0.113555        -1.070694
 H         0.852348         0.850401         0.911028
 H        -3.194103         0.233183         0.443598
 H        -2.257881         0.390878         2.074569
 H        -1.203306         2.370607         1.585071
 H        -2.293166         3.701010         0.172145
 H        -2.371083         3.760275        -2.231887
 H        -3.104583         1.448122        -3.215720
 H        -1.256969         1.746003        -3.185040
 H        -0.964024        -0.975340        -1.098146
 H         0.136431         0.390102        -1.445427
