19
Iteration:   167
 O         0.171563         0.257409         0.990739
 C        -0.935655         0.449004         0.206947
 C        -2.271354         0.404686         0.900826
 C        -1.528060         1.752736         0.663811
 C        -1.982866         2.730921        -0.256947
 C        -2.174580         2.810003        -1.553956
 C        -2.140706         1.648108        -2.481175
 O        -2.101412         0.467364        -1.707269
 C        -0.831236         0.124789        -1.249570
 H         0.073660        -0.656085         1.426066
 H        -3.187403         0.241314         0.326549
 H        -2.448301         0.183187         1.976805
 H        -0.937697         2.156878         1.503161
 H        -2.195383         3.705020         0.291851
 H        -2.609495         3.724320        -2.033082
 H        -3.166497         1.554317        -2.906334
 H        -1.457803         1.597240        -3.390820
 H        -0.523667        -0.900261        -1.437563
 H        -0.104099         0.686006        -1.823319
