19
Iteration:    24
 O         0.254699        -0.076366         1.079657
 C        -0.865966         0.449044         0.318733
 C        -2.306944         0.531897         0.795976
 C        -1.429918         1.872088         0.535464
 C        -2.060161         3.002731        -0.273253
 C        -2.482938         2.924231        -1.515490
 C        -2.190304         1.697295        -2.437487
 O        -1.943009         0.374706        -1.832890
 C        -0.756529         0.026794        -1.129100
 H         0.424031        -1.037706         0.760133
 H        -3.168009         0.461062         0.124738
 H        -2.620462         0.395660         1.813846
 H        -1.245933         2.239508         1.557451
 H        -2.537728         3.684348         0.478018
 H        -3.338277         3.575641        -1.892374
 H        -3.183705         1.478212        -2.902321
 H        -1.504520         1.856170        -3.295331
 H        -0.598513        -1.056595        -1.291791
 H         0.102874         0.507543        -1.609912
