19
Iteration:  2601charge 0 multiplicity 1
 O         0.261707         0.050627         0.993331
 C        -0.955646         0.516347         0.327415
 C        -2.252589         0.608494         1.053388
 C        -1.508797         1.870190         0.711792
 C        -2.034573         2.891994        -0.279398
 C        -2.341503         2.820564        -1.597319
 C        -2.011509         1.561339        -2.504095
 O        -2.138158         0.283406        -1.929549
 C        -0.946842         0.001219        -1.220160
 H         0.797850         0.924041         1.032143
 H        -3.254223         0.523448         0.533540
 H        -2.336037         0.253013         2.140575
 H        -1.186911         2.333372         1.752489
 H        -1.844479         3.860861         0.234039
 H        -2.822154         3.643421        -2.227717
 H        -2.679276         1.706015        -3.359664
 H        -0.989364         1.684542        -2.920301
 H        -0.786634        -1.115852        -1.208966
 H        -0.074696         0.512016        -1.673944
