19
Iteration:  3297charge 0 multiplicity 1
 O         0.018029        -0.146937         1.054917
 C        -0.916925         0.581194         0.278130
 C        -2.342551         0.620886         0.896813
 C        -1.511397         1.952677         0.738140
 C        -1.857874         2.939565        -0.305924
 C        -2.209168         2.759890        -1.534914
 C        -2.387530         1.513482        -2.356913
 O        -1.958452         0.190163        -1.933668
 C        -0.697717         0.280545        -1.247383
 H         0.861029         0.380139         1.144805
 H        -3.125406         0.449459         0.140295
 H        -2.307388         0.130044         1.840789
 H        -1.050922         2.190679         1.787305
 H        -1.869211         4.004648        -0.067556
 H        -2.520198         3.675847        -2.102926
 H        -3.506530         1.381788        -2.576129
 H        -1.979366         1.744809        -3.365397
 H        -0.091946        -0.661848        -1.456865
 H        -0.099387         1.139993        -1.672215
