19
Iteration:  1237charge 0 multiplicity 1
 O         0.021275        -0.027053         1.027301
 C        -0.888118         0.604118         0.185138
 C        -2.189288         0.678050         1.005629
 C        -1.429631         1.960969         0.772829
 C        -2.001536         2.893800        -0.237003
 C        -2.383836         2.784696        -1.545045
 C        -2.143180         1.638429        -2.483585
 O        -2.032177         0.217532        -1.948520
 C        -0.811360        -0.038353        -1.197610
 H         0.859558         0.327210         0.785121
 H        -3.244442         0.667346         0.616336
 H        -2.015137         0.249084         2.012092
 H        -0.863054         2.529453         1.475057
 H        -2.224549         3.894024         0.098591
 H        -3.005261         3.590974        -2.110151
 H        -3.006512         1.467718        -3.169457
 H        -1.272330         1.946495        -3.107330
 H        -0.807860        -1.126776        -0.884151
 H         0.100868         0.060386        -1.756013
