19
Iteration:   694charge 0 multiplicity 1
 O         0.180338        -0.052515         0.936432
 C        -0.970478         0.457311         0.256840
 C        -2.127123         0.700386         1.210132
 C        -1.378033         1.881678         0.554737
 C        -2.232850         2.845958        -0.275829
 C        -2.429343         2.777747        -1.586647
 C        -1.844882         1.672680        -2.464336
 O        -2.131523         0.347164        -1.951575
 C        -0.983831        -0.013362        -1.163091
 H         0.699639         0.698795         1.180069
 H        -3.191463         0.616849         0.939142
 H        -1.919482         0.705049         2.268831
 H        -0.670379         2.409383         1.212598
 H        -2.792377         3.612835         0.287283
 H        -3.121499         3.516807        -2.052929
 H        -2.181214         1.723878        -3.537988
 H        -0.724373         1.842777        -2.435471
 H        -1.094726        -1.110424        -1.198807
 H        -0.005704         0.311411        -1.586541
