19
Iteration:  1435
 O         0.116583        -0.080225         0.934019
 C        -0.971729         0.531477         0.302027
 C        -2.180946         0.683621         1.120743
 C        -1.443484         1.927538         0.666950
 C        -2.082353         2.837303        -0.317906
 C        -2.445030         2.710858        -1.577376
 C        -1.979241         1.668102        -2.453279
 O        -1.987207         0.410523        -1.919934
 C        -0.966903        -0.008819        -1.162366
 H         1.034398         0.303762         0.725749
 H        -3.182925         0.570349         0.777233
 H        -2.231057         0.486103         2.134377
 H        -0.683008         2.346809         1.376595
 H        -2.427986         3.828031         0.128226
 H        -2.871476         3.486586        -2.111012
 H        -2.634755         1.453072        -3.240139
 H        -0.920444         1.815528        -2.992954
 H        -1.089379        -1.132417        -1.021313
 H        -0.044630         0.273829        -1.724455
