19
Iteration:  2070
 O         0.037688        -0.048683         1.166201
 C        -0.856155         0.540430         0.243030
 C        -2.219123         0.581693         0.889235
 C        -1.450097         1.928087         0.655990
 C        -1.972782         2.919200        -0.260463
 C        -2.269322         2.823667        -1.583811
 C        -2.336490         1.530311        -2.477442
 O        -2.058717         0.243253        -1.868982
 C        -0.738307         0.127414        -1.226882
 H         0.827135         0.521500         1.323066
 H        -3.071628         0.491792         0.259170
 H        -2.382196         0.177271         1.839216
 H        -0.866672         2.366948         1.465903
 H        -1.765331         3.919314         0.134334
 H        -2.581670         3.823632        -1.957008
 H        -3.398374         1.454961        -2.845198
 H        -1.648396         1.573338        -3.390651
 H        -0.298605        -0.852921        -1.375376
 H        -0.187919         0.910063        -1.854228
