19
Iteration:   359charge 0 multiplicity 1
 O         0.245695         0.377910         0.913020
 C        -1.052277         0.494313         0.331923
 C        -2.144163         0.343243         1.225357
 C        -1.683228         1.815853         0.764010
 C        -2.024985         2.787956        -0.244810
 C        -2.139316         2.727751        -1.608191
 C        -1.996473         1.725301        -2.606424
 O        -2.070219         0.427811        -2.022384
 C        -1.061769        -0.061328        -1.137137
 H         0.594765        -0.470798         0.670487
 H        -3.190831         0.121514         0.910060
 H        -1.931738         0.070392         2.248462
 H        -1.071237         2.306462         1.624393
 H        -2.197289         3.808783         0.144075
 H        -2.290731         3.784948        -2.099559
 H        -2.785729         1.666576        -3.394715
 H        -1.120380         2.030886        -3.265180
 H        -1.368874        -1.156188        -1.088814
 H        -0.033399        -0.116992        -1.476306
