19
Iteration:  3804charge 0 multiplicity 1
 O         0.247232         0.214819         0.907360
 C        -1.042953         0.453975         0.284201
 C        -2.224838         0.460494         1.121840
 C        -1.597241         1.834920         0.550581
 C        -2.075184         2.820274        -0.295270
 C        -2.245932         2.765921        -1.572163
 C        -1.881323         1.690508        -2.495142
 O        -2.123826         0.400729        -1.811456
 C        -1.069238        -0.065585        -1.125292
 H         0.997552         0.796415         0.460270
 H        -3.096522         0.040667         0.612417
 H        -2.328219         0.395020         2.217219
 H        -1.040192         2.319441         1.446854
 H        -2.244776         3.866755         0.258645
 H        -2.322606         3.769170        -2.118030
 H        -2.340104         1.563628        -3.567379
 H        -0.720627         1.704112        -2.737332
 H        -1.004441        -1.131037        -1.054530
 H        -0.057893         0.221806        -1.453323
