19
Iteration:  4789charge 0 multiplicity 1
 O         0.130394        -0.033599         1.068567
 C        -0.929464         0.586755         0.244765
 C        -2.313326         0.580597         1.063978
 C        -1.504617         1.877420         0.695774
 C        -2.030563         2.917391        -0.186723
 C        -2.197220         2.751780        -1.524346
 C        -2.224603         1.599566        -2.550142
 O        -2.004340         0.241178        -2.019487
 C        -0.842131         0.117895        -1.212222
 H         1.016423         0.464434         0.873061
 H        -3.269720         0.452081         0.455846
 H        -2.329514         0.420810         2.180342
 H        -1.032175         2.357749         1.614250
 H        -2.076777         3.927434         0.236270
 H        -2.484069         3.703636        -1.973241
 H        -3.172751         1.517301        -3.049295
 H        -1.459376         1.864707        -3.329500
 H        -0.527487        -0.898985        -1.304987
 H         0.006107         0.601390        -1.637409
