19
Iteration:   767
 O         0.323315         0.285181         0.941007
 C        -0.914283         0.400097         0.269854
 C        -2.210179         0.521683         1.157511
 C        -1.599420         1.762858         0.591011
 C        -2.143368         2.900633        -0.217387
 C        -2.090300         2.887543        -1.591754
 C        -1.938086         1.629819        -2.509364
 O        -2.276292         0.330031        -1.922844
 C        -1.040346        -0.173221        -1.169409
 H         0.791803         1.133394         0.984466
 H        -3.202541         0.346121         0.728537
 H        -2.213537         0.456254         2.229100
 H        -1.119010         2.321128         1.462376
 H        -2.298928         3.923655         0.412736
 H        -2.359092         3.812482        -2.181385
 H        -2.626031         1.666034        -3.338741
 H        -0.843356         1.585500        -2.945814
 H        -1.339584        -1.183391        -0.972857
 H        -0.126983        -0.139366        -1.814906
