19
Iteration:  4896
 O         0.141186        -0.019447         0.995278
 C        -0.955310         0.532828         0.219306
 C        -2.266160         0.612356         0.960014
 C        -1.570528         1.927597         0.750416
 C        -2.045371         2.906822        -0.175476
 C        -2.189725         2.806384        -1.523347
 C        -2.157147         1.593012        -2.498365
 O        -2.029755         0.215280        -1.959448
 C        -0.824459         0.085193        -1.166140
 H         0.981424         0.443809         0.641577
 H        -3.198246         0.427201         0.405438
 H        -2.416302         0.326647         1.986711
 H        -1.023592         2.264348         1.654352
 H        -1.881803         3.972006         0.059378
 H        -2.433866         3.717906        -1.959541
 H        -3.195755         1.555730        -2.851855
 H        -1.547557         1.691686        -3.363732
 H        -0.673913        -0.987395        -1.204482
 H        -0.103479         0.794362        -1.513103
