19
Iteration:  1266charge 0 multiplicity 1
 O         0.055498        -0.146911         1.198586
 C        -0.875915         0.493048         0.314054
 C        -2.234499         0.708855         0.878375
 C        -1.304644         1.900937         0.599283
 C        -1.986590         2.919612        -0.334388
 C        -2.408575         2.739102        -1.557564
 C        -2.278604         1.569153        -2.420462
 O        -2.011678         0.293073        -1.929799
 C        -0.782321         0.243974        -1.161342
 H         0.914169        -0.323421         0.690210
 H        -3.166800         0.677655         0.284614
 H        -2.505845         0.366094         1.865008
 H        -0.823040         2.443256         1.384113
 H        -2.239631         3.869312         0.092433
 H        -2.961716         3.455947        -2.163286
 H        -3.232472         1.388545        -2.852834
 H        -1.608628         1.926339        -3.248263
 H        -0.528967        -0.855725        -1.236172
 H         0.093949         0.730158        -1.698297
