19
Iteration:  4680charge 0 multiplicity 1
 O         0.246612         0.150939         0.943653
 C        -0.985071         0.467783         0.329369
 C        -2.258104         0.491512         1.173002
 C        -1.521398         1.816589         0.671628
 C        -2.146525         2.887058        -0.237217
 C        -2.274195         2.874660        -1.590471
 C        -1.918862         1.688236        -2.548751
 O        -2.095502         0.374741        -1.960335
 C        -1.001034        -0.120430        -1.163743
 H         1.041883         0.554091         0.410434
 H        -3.122369         0.254587         0.568478
 H        -2.339166         0.209953         2.227033
 H        -0.889963         2.294014         1.413145
 H        -2.389336         3.880380         0.226539
 H        -2.784172         3.665939        -2.033366
 H        -2.524981         1.697752        -3.464075
 H        -0.821226         1.778076        -2.947207
 H        -1.179579        -1.101334        -0.903277
 H         0.035725         0.012355        -1.612676
