19
Iteration:  4567
 O         0.053004        -0.012288         1.123464
 C        -0.886906         0.525051         0.213237
 C        -2.183814         0.611286         1.016543
 C        -1.393260         1.867459         0.555052
 C        -2.121807         2.906832        -0.242546
 C        -2.461288         2.822429        -1.532933
 C        -2.054624         1.622637        -2.507103
 O        -1.934740         0.362968        -1.938207
 C        -0.899746        -0.029880        -1.162859
 H         0.975182         0.166106         0.854946
 H        -3.123023         0.523092         0.444067
 H        -2.166539         0.346882         2.098401
 H        -0.846416         2.315238         1.411919
 H        -2.353464         3.843997         0.423898
 H        -3.095742         3.672441        -1.984437
 H        -2.873901         1.497270        -3.212058
 H        -1.030304         1.866749        -3.026349
 H        -1.147257        -1.117691        -1.070109
 H        -0.026590         0.283201        -1.752262
