19
Iteration:  1420charge 0 multiplicity 1
 O         0.122762        -0.120569         0.988225
 C        -0.928016         0.496809         0.251612
 C        -2.182571         0.631322         1.146089
 C        -1.439938         1.917459         0.646068
 C        -2.171946         2.918418        -0.285166
 C        -2.291812         2.862731        -1.659084
 C        -2.044447         1.597305        -2.563032
 O        -2.107786         0.343931        -1.821231
 C        -0.865183         0.017966        -1.149616
 H         0.899250         0.483537         0.771127
 H        -3.125945         0.423223         0.616380
 H        -1.883735         0.194537         2.141598
 H        -0.978883         2.465662         1.464638
 H        -2.542936         3.805792         0.216614
 H        -2.866464         3.766874        -2.145816
 H        -2.784118         1.774154        -3.374096
 H        -0.998796         1.741418        -3.029503
 H        -0.774625        -1.080794        -1.168938
 H         0.083873         0.459234        -1.579889
