19
Iteration:  1075charge 0 multiplicity 1
 O         0.138549        -0.113640         1.020863
 C        -0.997358         0.504999         0.202418
 C        -2.040718         0.684110         1.220737
 C        -1.344350         2.015090         0.625105
 C        -2.252502         2.952715        -0.264874
 C        -2.521411         2.746400        -1.607362
 C        -1.863093         1.714844        -2.430467
 O        -2.014396         0.324850        -2.075252
 C        -1.046455        -0.133455        -1.156886
 H         0.968311         0.329624         1.017021
 H        -3.131592         0.589782         0.968852
 H        -1.818922         0.476545         2.305668
 H        -0.547755         2.562965         1.127829
 H        -2.824134         3.747623         0.215956
 H        -3.295195         3.452034        -1.979442
 H        -2.296501         1.789767        -3.498728
 H        -0.814402         1.957364        -2.443062
 H        -1.114190        -1.176083        -0.989509
 H        -0.139222        -0.011796        -1.703044
