19
Iteration:  3434
 O         0.180607         0.151827         0.911982
 C        -1.012764         0.453872         0.192826
 C        -2.135454         0.554552         1.254428
 C        -1.538696         1.798558         0.530323
 C        -2.271712         2.837573        -0.261236
 C        -2.231728         2.938524        -1.607641
 C        -1.796753         1.689160        -2.427860
 O        -2.084722         0.391407        -1.909702
 C        -1.067702        -0.168782        -1.148286
 H         0.901136         0.640581         0.591130
 H        -3.099150         0.140445         0.915586
 H        -1.864460         0.336525         2.271887
 H        -0.915331         2.216423         1.352170
 H        -2.425673         3.718299         0.374781
 H        -2.746471         3.745277        -2.011178
 H        -2.411516         1.739694        -3.300579
 H        -0.731041         1.720259        -2.751879
 H        -1.307105        -1.244530        -1.024487
 H        -0.097311        -0.022554        -1.626740
