19
Iteration:  4648
 O         0.225705         0.282766         0.854676
 C        -0.999289         0.505654         0.285003
 C        -2.211722         0.398505         1.238677
 C        -1.660732         1.832695         0.674688
 C        -2.169098         2.872675        -0.244853
 C        -2.067493         2.805496        -1.553055
 C        -1.897043         1.672031        -2.477872
 O        -2.107162         0.388056        -1.989408
 C        -1.064576        -0.145583        -1.144679
 H         0.886456         0.830311         0.452436
 H        -3.053515        -0.055950         0.716250
 H        -2.201060         0.250289         2.331728
 H        -1.064207         2.144578         1.519926
 H        -2.319772         3.874445         0.158350
 H        -2.256358         3.692884        -2.062116
 H        -2.622052         1.868775        -3.321339
 H        -0.901434         1.674175        -3.108212
 H        -1.212991        -1.152676        -0.998491
 H        -0.131170        -0.231457        -1.646675
