19
Iteration:  1761charge 0 multiplicity 1
 O         0.181148         0.061843         1.158835
 C        -0.894508         0.431123         0.321834
 C        -2.285366         0.480012         0.934314
 C        -1.603863         1.808656         0.700190
 C        -1.760475         2.782804        -0.342413
 C        -2.255271         2.824393        -1.601615
 C        -2.362530         1.596271        -2.536751
 O        -2.201573         0.347415        -1.847163
 C        -0.718073         0.207923        -1.219710
 H         0.733995         0.802557         1.083333
 H        -3.125454         0.281549         0.233892
 H        -2.478794         0.485349         2.047327
 H        -1.178307         2.229570         1.577309
 H        -1.411129         3.762515        -0.050812
 H        -2.217003         3.723853        -2.133256
 H        -3.355985         1.570037        -3.037971
 H        -1.635095         1.623368        -3.325788
 H        -0.247206        -0.658106        -1.495540
 H        -0.017721         0.966015        -1.721647
