19
Iteration:   590
 O         0.330720         0.165710         0.969273
 C        -0.932012         0.532686         0.320022
 C        -2.263530         0.483838         1.021529
 C        -1.564025         1.842279         0.773990
 C        -2.098830         2.813736        -0.256348
 C        -2.027111         2.824102        -1.627260
 C        -2.179756         1.622054        -2.543223
 O        -2.121395         0.316296        -1.900179
 C        -0.964469         0.103009        -1.198909
 H         0.134930        -0.555610         1.600176
 H        -3.188128         0.394609         0.436810
 H        -2.435039         0.312430         2.085574
 H        -1.127397         2.322994         1.599111
 H        -2.501696         3.721942         0.137692
 H        -2.394937         3.696214        -2.100286
 H        -3.109713         1.532007        -3.139771
 H        -1.339880         1.590571        -3.325019
 H        -0.831321        -0.968850        -1.396553
 H        -0.003213         0.506950        -1.658129
