19
Iteration:  3770
 O         0.187484        -0.026020         1.088300
 C        -0.932515         0.560419         0.305197
 C        -2.195813         0.604007         1.051259
 C        -1.506180         1.949084         0.732595
 C        -2.135902         2.851859        -0.236731
 C        -2.239126         2.785360        -1.590635
 C        -2.104313         1.629902        -2.574474
 O        -2.079974         0.262577        -1.990903
 C        -0.903710         0.027354        -1.190315
 H         1.045302         0.520181         0.932265
 H        -2.986135         0.483368         0.290524
 H        -2.266225         0.248007         2.076298
 H        -1.045467         2.435685         1.585747
 H        -2.505231         3.924726         0.096408
 H        -2.486318         3.777321        -2.002295
 H        -3.065570         1.546181        -3.190033
 H        -1.119531         1.938303        -3.168114
 H        -0.839987        -1.054575        -1.145000
 H        -0.056139         0.410442        -1.770000
