19
Iteration:  4451charge 0 multiplicity 1
 O         0.188694         0.206368         1.107225
 C        -0.921338         0.520952         0.268306
 C        -2.368431         0.412660         0.845677
 C        -1.645606         1.758965         0.696600
 C        -1.787038         2.828857        -0.286792
 C        -2.088568         2.812499        -1.602986
 C        -2.286849         1.592922        -2.514532
 O        -2.161976         0.307010        -1.756735
 C        -0.843560         0.187666        -1.212465
 H         0.948292         0.676457         0.714374
 H        -3.161651         0.129614         0.190785
 H        -2.380843        -0.064885         1.809992
 H        -1.217189         2.089260         1.676358
 H        -1.732554         3.787944         0.148586
 H        -2.022705         3.841947        -2.083267
 H        -3.275617         1.413737        -2.960011
 H        -1.406420         1.532176        -3.196325
 H        -0.636958        -0.867280        -1.249967
 H        -0.064882         0.793532        -1.750546
