19
Iteration:  1850
 O         0.207820         0.085269         0.995084
 C        -1.023212         0.485609         0.322112
 C        -2.254876         0.670921         1.118590
 C        -1.439477         1.843048         0.700572
 C        -1.936794         2.863221        -0.244926
 C        -2.467219         2.791946        -1.542861
 C        -1.955806         1.620652        -2.549107
 O        -2.084008         0.305332        -2.048342
 C        -0.992759        -0.031626        -1.172961
 H         0.802359         0.789431         0.878265
 H        -3.165073         0.299257         0.627395
 H        -2.106286         0.359245         2.164925
 H        -0.750702         2.268637         1.435601
 H        -2.183752         3.791370         0.324432
 H        -3.117325         3.710764        -1.761023
 H        -2.484865         1.700235        -3.554762
 H        -0.924132         1.878122        -2.846798
 H        -1.101958        -1.077230        -1.160116
 H         0.074233         0.021389        -1.613722
