19
Iteration:  1057
 O         0.049960        -0.069559         0.953553
 C        -0.993070         0.514217         0.265352
 C        -2.147963         0.712118         1.237558
 C        -1.271038         1.907579         0.457869
 C        -2.139395         2.814502        -0.279416
 C        -2.553563         2.705867        -1.579709
 C        -1.893027         1.727758        -2.515530
 O        -2.027743         0.414754        -1.912382
 C        -0.918580        -0.067712        -1.152892
 H         0.792000         0.508947         0.881121
 H        -3.221382         0.597300         0.949592
 H        -1.822395         0.487325         2.216071
 H        -0.975042         2.467829         1.408482
 H        -2.442578         3.593110         0.506695
 H        -3.365329         3.431549        -1.856639
 H        -2.447606         1.641169        -3.407033
 H        -0.789636         1.961193        -2.703222
 H        -1.097247        -1.183079        -1.168819
 H         0.195186         0.115849        -1.469345
