19
Iteration:  3378
 O         0.145458         0.029924         0.998829
 C        -0.947038         0.595771         0.261354
 C        -2.209605         0.591402         0.941278
 C        -1.529646         1.889122         0.730651
 C        -2.012517         2.834039        -0.283199
 C        -2.189628         2.791056        -1.537315
 C        -2.163322         1.636245        -2.465175
 O        -2.140823         0.274421        -1.915478
 C        -0.823523         0.043929        -1.137793
 H         0.945861         0.566407         0.861450
 H        -2.996229         0.324312         0.226239
 H        -2.290145         0.113256         1.976715
 H        -1.269383         2.120699         1.721402
 H        -2.396420         3.786410         0.191793
 H        -2.380552         3.827147        -2.063349
 H        -2.960140         1.661147        -3.154562
 H        -1.277759         1.735873        -3.142281
 H        -0.795652        -1.033371        -1.125259
 H         0.032645         0.366574        -1.717184
