19
Iteration:  3060
 O         0.289351         0.026572         0.952964
 C        -0.985463         0.461774         0.300416
 C        -2.154467         0.646881         1.192444
 C        -1.474280         1.859928         0.565688
 C        -2.184097         2.855686        -0.267232
 C        -2.427954         2.830729        -1.628658
 C        -1.804416         1.701829        -2.469957
 O        -2.028018         0.475147        -1.972257
 C        -1.168469        -0.168348        -1.055036
 H         0.865559         0.137717         0.201762
 H        -3.078801         0.367660         0.753061
 H        -2.020426         0.579158         2.226198
 H        -0.867173         2.394193         1.359419
 H        -2.832717         3.429452         0.356950
 H        -3.129879         3.474987        -2.157211
 H        -2.311197         1.565872        -3.561376
 H        -0.767837         1.920075        -2.752797
 H        -1.330539        -1.216881        -1.155961
 H        -0.130188        -0.015960        -1.389398
