19
Iteration:  4235charge 0 multiplicity 1
 O         0.295181         0.271678         0.863621
 C        -0.943349         0.571531         0.273487
 C        -2.122555         0.434831         1.131479
 C        -1.725585         1.829100         0.743498
 C        -2.173618         2.870300        -0.266039
 C        -2.131100         2.811670        -1.656134
 C        -1.785352         1.617789        -2.506883
 O        -2.161773         0.398930        -1.899698
 C        -1.231299        -0.225356        -1.118576
 H         1.149032         0.757998         0.533026
 H        -3.021329         0.053990         0.602366
 H        -2.176223         0.112065         2.170015
 H        -1.154512         2.313713         1.641961
 H        -2.641200         3.805547         0.211180
 H        -2.156215         3.918726        -2.042492
 H        -2.335899         1.780017        -3.462713
 H        -0.622388         1.817029        -2.693067
 H        -1.508847        -1.194421        -0.829918
 H        -0.133224        -0.089209        -1.544420
