19
Iteration:  2695
 O         0.177796         0.031614         0.930224
 C        -0.908627         0.555248         0.211674
 C        -2.111437         0.663970         1.079510
 C        -1.390525         1.958942         0.628079
 C        -2.279845         2.861668        -0.243700
 C        -2.486789         2.717504        -1.595174
 C        -1.681220         1.696321        -2.418507
 O        -2.156069         0.407857        -1.950157
 C        -1.050387        -0.210504        -1.064695
 H         0.965492         0.412685         0.600621
 H        -3.040645         0.541862         0.615854
 H        -2.042812         0.317349         2.084244
 H        -0.759097         2.436690         1.272935
 H        -3.012763         3.534636         0.210692
 H        -2.994124         3.535228        -2.149362
 H        -2.109359         1.825063        -3.418057
 H        -0.680796         1.840910        -2.447091
 H        -1.409936        -1.160851        -0.752003
 H        -0.175248        -0.310681        -1.644708
