19
Iteration:  4007
 O         0.265189         0.115914         1.059751
 C        -0.919019         0.569036         0.360495
 C        -2.241064         0.430916         0.986162
 C        -1.734240         1.834578         0.768275
 C        -1.968871         2.820377        -0.320927
 C        -2.001509         2.803946        -1.609770
 C        -2.202585         1.637097        -2.551377
 O        -2.169157         0.338201        -1.905488
 C        -0.940759         0.079258        -1.183868
 H         0.996723         0.634980         0.814871
 H        -3.027638         0.238134         0.213874
 H        -2.430894         0.013486         1.994462
 H        -1.231466         2.274775         1.622677
 H        -1.886238         3.795804         0.093185
 H        -2.506421         3.765783        -2.098925
 H        -3.183605         1.777950        -3.008224
 H        -1.460394         1.645087        -3.315232
 H        -0.635509        -1.033183        -1.305206
 H         0.108978         0.437245        -1.637513
