19
Iteration:   823
 O         0.280268        -0.087303         1.090864
 C        -0.872534         0.496972         0.322007
 C        -2.267254         0.721026         1.004881
 C        -1.514247         1.922288         0.623780
 C        -2.121287         2.842673        -0.287179
 C        -2.251626         2.790241        -1.611916
 C        -2.144796         1.602878        -2.496991
 O        -2.093012         0.323901        -1.922663
 C        -0.907596         0.086670        -1.118272
 H         1.038737        -0.168839         0.402874
 H        -3.049868         0.325413         0.382344
 H        -2.360555         0.527431         2.081121
 H        -1.017454         2.452618         1.450670
 H        -2.698022         3.691820         0.219852
 H        -2.638956         3.648625        -2.157585
 H        -3.055488         1.574167        -3.027977
 H        -1.318182         1.922151        -3.246280
 H        -0.762256        -0.955134        -1.218295
 H         0.007073         0.558191        -1.582882
