19
Iteration:  1211
 O         0.265329         0.082883         0.941364
 C        -0.986642         0.426182         0.329413
 C        -2.262486         0.614438         1.107572
 C        -1.431912         1.898543         0.601304
 C        -2.081809         2.939677        -0.209637
 C        -2.301551         2.783798        -1.536235
 C        -1.953216         1.660636        -2.538561
 O        -2.133473         0.263176        -1.987353
 C        -1.060214        -0.088113        -1.109356
 H         0.755002         0.903344         0.960676
 H        -3.084881         0.257774         0.525573
 H        -2.316751         0.731023         2.179895
 H        -0.790739         2.408411         1.361519
 H        -2.399017         3.930198         0.203486
 H        -2.789117         3.563452        -2.074797
 H        -2.537263         1.632513        -3.410710
 H        -0.905842         1.852306        -2.849553
 H        -0.777493        -1.181612        -1.161188
 H        -0.147482         0.453441        -1.511977
