19
Iteration:  1539
 O         0.348343         0.027891         0.882864
 C        -0.936208         0.548233         0.297569
 C        -2.211818         0.533367         1.233207
 C        -1.599361         1.878708         0.614534
 C        -2.232985         2.775107        -0.273317
 C        -2.245857         2.857855        -1.649947
 C        -1.810072         1.687223        -2.550074
 O        -2.134020         0.440566        -1.874779
 C        -1.154841        -0.119006        -1.079214
 H         1.025768         0.468177         0.426686
 H        -3.150748         0.436452         0.641356
 H        -2.148795         0.539315         2.323304
 H        -1.029639         2.380007         1.390196
 H        -2.530791         3.693421         0.260229
 H        -2.457166         3.831691        -2.232766
 H        -2.367167         1.565589        -3.609293
 H        -0.734540         1.771359        -2.770907
 H        -1.366316        -1.120946        -0.812386
 H        -0.192968        -0.079185        -1.635273
