19
Iteration:  2877
 O         0.031052        -0.085320         1.003202
 C        -0.957547         0.584984         0.302866
 C        -2.268853         0.581653         0.971058
 C        -1.510584         1.986350         0.746589
 C        -1.900937         2.925805        -0.276205
 C        -2.194156         2.752998        -1.623636
 C        -2.413176         1.465411        -2.397014
 O        -1.906896         0.242250        -2.009424
 C        -0.763335         0.232189        -1.181289
 H         0.660204         0.469383         1.590668
 H        -3.085537         0.261482         0.384528
 H        -2.267750         0.219847         1.954773
 H        -0.894102         2.510543         1.539371
 H        -1.930872         3.975679         0.078013
 H        -2.195182         3.658469        -2.156042
 H        -3.492916         1.153979        -2.447053
 H        -2.067137         1.817654        -3.406430
 H        -0.469622        -0.883863        -1.215366
 H         0.046474         0.863735        -1.513752
