19
Iteration:  3176
 O         0.177569         0.008531         0.980258
 C        -0.923630         0.522614         0.257840
 C        -2.165737         0.549821         1.073763
 C        -1.526102         1.887521         0.689344
 C        -2.167631         2.842832        -0.283826
 C        -2.206688         2.856653        -1.614568
 C        -2.045544         1.611067        -2.456876
 O        -2.112236         0.354485        -1.893666
 C        -0.954190         0.045932        -1.149385
 H         0.944132         0.488573         0.732877
 H        -3.013927         0.431168         0.410837
 H        -2.219855         0.078919         2.041534
 H        -0.949982         2.402430         1.520960
 H        -2.433193         3.751260         0.240514
 H        -2.500998         3.654048        -2.210187
 H        -2.704237         1.660975        -3.238090
 H        -1.080380         1.664892        -3.029180
 H        -0.938738        -1.064055        -1.106621
 H        -0.092732         0.244940        -1.716482
