19
Iteration:  1943charge 0 multiplicity 1
 O         0.256717         0.111542         0.912416
 C        -0.968585         0.471454         0.337171
 C        -2.249409         0.587179         1.209576
 C        -1.445112         1.882250         0.618601
 C        -2.073120         2.865026        -0.315457
 C        -2.391142         2.819464        -1.607683
 C        -1.836817         1.732587        -2.489247
 O        -2.073328         0.411422        -1.965383
 C        -1.126918        -0.196630        -1.111974
 H         1.003798         0.710794         0.535761
 H        -3.117779         0.061872         0.798838
 H        -2.281182         0.581620         2.312334
 H        -1.029394         2.427306         1.441735
 H        -2.763459         3.253555         0.368121
 H        -2.934300         3.568992        -2.063116
 H        -2.343176         1.716681        -3.439325
 H        -0.813831         1.776286        -2.845311
 H        -1.263768        -1.347333        -1.052166
 H        -0.110325        -0.127220        -1.681312
