19
Iteration:  3810
 O         0.282622         0.222890         0.900494
 C        -0.985160         0.437858         0.289170
 C        -2.228564         0.466943         1.142390
 C        -1.634389         1.809702         0.600261
 C        -2.129664         2.849760        -0.294896
 C        -2.238246         2.862195        -1.653490
 C        -1.874651         1.673769        -2.463131
 O        -2.109330         0.401135        -1.816536
 C        -1.072226        -0.147466        -1.123484
 H         0.821662         0.813830         0.408435
 H        -3.125632         0.137931         0.601650
 H        -2.361078         0.329983         2.209475
 H        -1.008329         2.292048         1.279538
 H        -2.241852         3.737580         0.225627
 H        -2.282659         3.785531        -2.128220
 H        -2.232371         1.729407        -3.440354
 H        -0.832999         1.678440        -2.584586
 H        -1.264022        -1.287989        -1.109668
 H        -0.110326         0.286942        -1.541873
