19
Iteration:  2615charge 0 multiplicity 1
 O         0.207809         0.057143         0.943980
 C        -0.940953         0.528155         0.306652
 C        -2.181378         0.578557         1.125329
 C        -1.568481         1.963435         0.763990
 C        -2.060007         2.920822        -0.262817
 C        -2.236146         2.684089        -1.572367
 C        -2.001920         1.627311        -2.539877
 O        -2.098112         0.312333        -2.007826
 C        -1.022596        -0.011801        -1.145063
 H         0.931143         0.656544         0.901036
 H        -3.032077         0.241462         0.480424
 H        -2.152305         0.221757         2.209596
 H        -0.965770         2.497746         1.617892
 H        -2.574028         3.850461         0.004551
 H        -2.682947         3.565444        -2.023038
 H        -2.727037         1.597818        -3.406888
 H        -1.060542         1.783533        -2.934925
 H        -1.028282        -1.113529        -1.090297
 H        -0.140596         0.217686        -1.625497
