19
Iteration:  3230
 O         0.215727         0.029088         1.141025
 C        -0.919242         0.532755         0.341318
 C        -2.309497         0.385577         0.913894
 C        -1.506157         1.871969         0.657235
 C        -1.822409         2.864133        -0.296184
 C        -2.296321         2.793143        -1.602787
 C        -2.330485         1.674703        -2.595671
 O        -2.087269         0.355812        -1.910549
 C        -0.872998         0.130692        -1.075790
 H         0.973386         0.581965         0.946959
 H        -2.945243        -0.075697         0.217068
 H        -2.419032         0.291758         1.985181
 H        -1.302126         2.258739         1.698626
 H        -1.562834         3.854222         0.014899
 H        -2.300866         3.631123        -2.171239
 H        -3.308136         1.543481        -3.098709
 H        -1.521785         1.827413        -3.313968
 H        -0.607566        -0.950742        -1.251451
 H        -0.192360         0.759818        -1.588416
