19
Iteration:   759
 O         0.351928         0.303926         0.913488
 C        -0.971486         0.410394         0.278262
 C        -2.183145         0.575438         1.109889
 C        -1.591763         1.814609         0.682315
 C        -2.148804         2.858906        -0.231459
 C        -2.067808         2.860648        -1.571248
 C        -1.973690         1.659951        -2.483951
 O        -2.187507         0.341814        -1.957118
 C        -1.123845        -0.255801        -1.154296
 H         0.625215         1.238121         1.127791
 H        -3.064683         0.378959         0.503673
 H        -2.239719         0.305018         2.178021
 H        -0.822077         2.251193         1.340142
 H        -2.635945         3.679692         0.341902
 H        -2.230883         3.769018        -2.166633
 H        -2.665724         1.745466        -3.288469
 H        -1.056438         1.579553        -2.994089
 H        -1.404406        -1.270116        -0.937207
 H        -0.221862        -0.176883        -1.741032
