19
Iteration:  4934charge 0 multiplicity 1
 O         0.038556        -0.113518         1.040665
 C        -0.941614         0.540105         0.310465
 C        -2.198340         0.674750         0.952195
 C        -1.382577         1.892169         0.642214
 C        -1.992670         2.870177        -0.247036
 C        -2.490666         2.708095        -1.507763
 C        -2.084542         1.694546        -2.556695
 O        -2.002947         0.295729        -1.948339
 C        -0.846276         0.101949        -1.122239
 H         0.832687         0.366047         1.003361
 H        -3.126686         0.586694         0.387098
 H        -2.074242         0.386422         2.021822
 H        -0.890961         2.307885         1.486805
 H        -2.046973         3.820261         0.291459
 H        -3.249351         3.524497        -1.933168
 H        -2.921117         1.582801        -3.279702
 H        -1.214214         1.942879        -3.135948
 H        -0.469965        -0.945753        -1.104099
 H         0.013124         0.641058        -1.644443
