19
Iteration:   572
 O         0.330939         0.120379         1.043653
 C        -0.882425         0.494400         0.357872
 C        -2.203623         0.383160         1.025211
 C        -1.693925         1.787227         0.632206
 C        -2.001730         2.905469        -0.353296
 C        -2.186243         2.845672        -1.650479
 C        -2.211174         1.646574        -2.598145
 O        -2.165688         0.391095        -1.859133
 C        -0.879978         0.088666        -1.116597
 H         0.099444        -0.259882         1.895680
 H        -2.899848        -0.232592         0.464235
 H        -2.193711         0.150487         2.110200
 H        -1.346197         2.279359         1.594668
 H        -1.728783         3.944261         0.122402
 H        -2.055660         3.835214        -2.158075
 H        -3.166526         1.833941        -3.052967
 H        -1.536724         1.814267        -3.463623
 H        -0.817982        -1.020831        -1.095872
 H        -0.100874         0.581804        -1.709106
