19
Iteration:  2184charge 0 multiplicity 1
 O         0.187777         0.031135         1.100259
 C        -0.864643         0.468481         0.297370
 C        -2.324720         0.593529         0.884326
 C        -1.558945         1.790776         0.660781
 C        -1.862481         2.923148        -0.333808
 C        -2.358053         2.735389        -1.576705
 C        -2.156145         1.613205        -2.451207
 O        -2.171093         0.337007        -1.786874
 C        -0.839046         0.132116        -1.183905
 H         0.995119         0.473959         0.662070
 H        -3.107981         0.119509         0.212579
 H        -2.489548         0.370369         1.977693
 H        -1.216305         2.326859         1.578588
 H        -1.654620         4.010072        -0.026316
 H        -2.421484         3.592823        -2.277110
 H        -2.959064         1.507746        -3.347507
 H        -1.201707         1.709580        -3.192593
 H        -0.453716        -0.903587        -1.248070
 H        -0.012125         0.737014        -1.678287
