19
Iteration:  4339charge 0 multiplicity 1
 O         0.081827        -0.095408         1.059638
 C        -0.886018         0.536081         0.220326
 C        -2.215044         0.775724         0.957137
 C        -1.358156         1.962670         0.591671
 C        -2.107603         2.932790        -0.204661
 C        -2.591827         2.681720        -1.476291
 C        -1.933817         1.638696        -2.477633
 O        -2.006272         0.349172        -1.968308
 C        -0.866210        -0.067082        -1.138415
 H         1.024221        -0.128167         0.769555
 H        -3.184030         0.740587         0.382882
 H        -2.223388         0.556895         2.045409
 H        -0.736383         2.295595         1.397633
 H        -2.788574         3.748360         0.315243
 H        -3.190955         3.452067        -2.036089
 H        -2.642650         1.777179        -3.310486
 H        -0.881189         2.037550        -2.656408
 H        -1.012315        -1.160494        -1.074552
 H         0.115522         0.009963        -1.736025
