19
Iteration:  3542charge 0 multiplicity 1
 O         0.160447         0.035918         0.998227
 C        -1.005584         0.505373         0.308651
 C        -2.131046         0.626579         1.190802
 C        -1.384961         1.937441         0.654858
 C        -2.196848         2.838266        -0.266277
 C        -2.424078         2.747431        -1.531846
 C        -1.814421         1.735689        -2.523998
 O        -2.062040         0.391932        -2.047952
 C        -1.077559        -0.129396        -1.189467
 H         0.948216         0.315050         0.567127
 H        -3.098012         0.464246         0.742037
 H        -2.100069         0.216141         2.202123
 H        -0.690421         2.377036         1.284491
 H        -2.642132         3.782995         0.186009
 H        -3.213972         3.321379        -1.900309
 H        -2.199990         1.891741        -3.472661
 H        -0.698308         1.925124        -2.564940
 H        -1.199258        -1.178209        -1.016380
 H        -0.085054        -0.175395        -1.724071
