19
Iteration:  1645
 O         0.064672        -0.158675         1.174361
 C        -0.840576         0.464408         0.287124
 C        -2.188233         0.685551         0.977645
 C        -1.453044         1.920089         0.640809
 C        -2.063076         2.902135        -0.272190
 C        -2.316184         2.782851        -1.644603
 C        -2.313042         1.547328        -2.498699
 O        -2.060767         0.343984        -1.843051
 C        -0.754958         0.166375        -1.279059
 H         0.913721         0.177408         1.313585
 H        -3.149315         0.411494         0.457476
 H        -2.290380         0.221989         1.990927
 H        -1.077630         2.415586         1.500379
 H        -1.757841         3.901445         0.063145
 H        -2.366618         3.743394        -2.299361
 H        -3.200365         1.495275        -3.010907
 H        -1.538026         1.779254        -3.211062
 H        -0.094188        -0.780207        -1.628512
 H        -0.174028         0.953535        -1.776413
