19
Iteration:  1898charge 0 multiplicity 1
 O         0.167644        -0.031811         0.979600
 C        -0.949214         0.581100         0.186781
 C        -2.103016         0.673921         1.144815
 C        -1.466259         1.947765         0.622105
 C        -2.317224         2.876890        -0.292289
 C        -2.297242         2.860345        -1.597282
 C        -1.833917         1.723159        -2.386817
 O        -2.081100         0.294515        -1.943222
 C        -1.018687        -0.167300        -1.148159
 H         0.956396        -0.026634         0.323347
 H        -3.138298         0.583039         0.964669
 H        -1.836363         0.432490         2.163411
 H        -0.980760         2.510829         1.432287
 H        -2.923206         3.558549         0.252356
 H        -3.181055         3.417312        -1.949289
 H        -2.323575         1.893914        -3.364556
 H        -0.835999         1.852254        -2.728606
 H        -1.082763        -1.294874        -1.072938
 H        -0.028211        -0.159627        -1.730696
