19
Iteration:  4216charge 0 multiplicity 1
 O         0.266923         0.294629         0.913243
 C        -0.972182         0.497879         0.257624
 C        -2.238219         0.429119         1.085329
 C        -1.591790         1.800513         0.617819
 C        -2.170457         2.834959        -0.242288
 C        -2.115042         2.864797        -1.627096
 C        -1.800996         1.637534        -2.458986
 O        -2.207555         0.383915        -1.853211
 C        -1.081897        -0.141356        -1.074542
 H         0.835471         0.820237         0.210339
 H        -3.124829         0.084841         0.552602
 H        -2.106396         0.186314         2.119472
 H        -1.030488         2.238718         1.460312
 H        -2.449910         3.921816         0.222940
 H        -2.598633         3.695116        -2.237077
 H        -2.408851         1.780277        -3.384897
 H        -0.720844         1.601615        -2.654597
 H        -1.336923        -1.175172        -0.970109
 H        -0.179513        -0.166103        -1.746545
