19
Iteration:  4687charge 0 multiplicity 1
 O         0.200898         0.103340         0.954179
 C        -0.972507         0.520821         0.307464
 C        -2.220285         0.491466         1.148455
 C        -1.495400         1.856189         0.673494
 C        -2.132250         2.882656        -0.258386
 C        -2.292060         2.779745        -1.590695
 C        -1.911590         1.710266        -2.539715
 O        -2.094813         0.402270        -1.928467
 C        -0.977920        -0.117107        -1.155104
 H         0.925515         0.523727         0.462142
 H        -3.062068         0.329651         0.514379
 H        -2.308508         0.207133         2.160785
 H        -0.957849         2.387624         1.445857
 H        -2.483892         3.841030         0.263978
 H        -2.847316         3.593125        -2.115301
 H        -2.576794         1.695808        -3.380841
 H        -0.911727         1.884437        -2.780684
 H        -1.256306        -1.264203        -1.087929
 H        -0.008995         0.144085        -1.694704
