19
Iteration:  1999charge 0 multiplicity 1
 O         0.222637         0.097799         0.941621
 C        -0.988753         0.559147         0.237812
 C        -2.233569         0.553526         1.072804
 C        -1.561786         1.860047         0.661451
 C        -2.032041         2.915575        -0.223746
 C        -2.164886         2.743173        -1.547612
 C        -1.977468         1.587427        -2.547832
 O        -2.135588         0.290971        -1.907972
 C        -1.037111         0.007053        -1.118863
 H         0.890041         0.760680         0.694986
 H        -3.253957         0.289062         0.615737
 H        -2.223426         0.451454         2.170789
 H        -1.088027         2.331069         1.502073
 H        -2.189461         3.866554         0.248865
 H        -2.872365         3.436895        -1.968669
 H        -2.730343         1.736990        -3.286746
 H        -0.901471         1.692948        -2.979797
 H        -0.777881        -1.138815        -1.120480
 H        -0.115152         0.555838        -1.601387
