19
Iteration:  4404
 O         0.196113         0.042828         1.017755
 C        -0.920106         0.577706         0.365680
 C        -2.258035         0.405402         1.008911
 C        -1.630292         1.837194         0.767452
 C        -2.008737         2.831768        -0.321845
 C        -2.077501         2.823642        -1.656843
 C        -2.182784         1.621997        -2.583295
 O        -2.128398         0.351071        -1.927772
 C        -0.870268         0.105856        -1.116190
 H         0.921137         0.776839         0.835443
 H        -3.261285         0.248863         0.521815
 H        -2.203567         0.122239         2.089905
 H        -1.244967         2.315225         1.672513
 H        -2.040079         3.954428         0.139118
 H        -2.221651         3.799963        -2.249975
 H        -3.273518         1.633967        -2.788491
 H        -1.491418         1.616349        -3.464870
 H        -0.748117        -0.896951        -0.990460
 H         0.037655         0.597052        -1.547962
