19
Iteration:  4617
 O         0.254559         0.177139         0.889214
 C        -0.955172         0.557860         0.296921
 C        -2.213330         0.436422         1.116525
 C        -1.608537         1.852733         0.699925
 C        -2.137682         2.789352        -0.274968
 C        -2.116159         2.763560        -1.612046
 C        -1.852349         1.669493        -2.479110
 O        -2.233481         0.378399        -1.935507
 C        -1.039292        -0.018003        -1.105388
 H         0.956167         0.907876         0.742408
 H        -3.066728         0.016054         0.540786
 H        -2.220707         0.216674         2.222485
 H        -1.237541         2.304118         1.639563
 H        -2.490600         3.680414         0.076033
 H        -2.431624         3.702919        -2.016324
 H        -2.454388         1.857175        -3.398812
 H        -0.834334         1.615845        -2.686532
 H        -1.102949        -1.140131        -1.113552
 H        -0.203128         0.254298        -1.746828
