19
Iteration:  4257charge 0 multiplicity 1
 O         0.318911         0.215687         0.848563
 C        -1.027905         0.517351         0.334459
 C        -2.202853         0.481004         1.231381
 C        -1.623704         1.837941         0.600582
 C        -2.226239         2.826425        -0.255403
 C        -2.147794         2.824220        -1.623381
 C        -1.739349         1.672136        -2.489427
 O        -2.146680         0.352867        -1.992808
 C        -1.165594        -0.125056        -1.104409
 H         0.986611         0.779868         0.552875
 H        -3.169399        -0.000102         1.002030
 H        -1.943992         0.261263         2.254549
 H        -1.094597         2.431635         1.449950
 H        -2.504190         3.734227         0.317253
 H        -2.698919         3.798405        -1.913991
 H        -2.347385         1.880969        -3.409974
 H        -0.632880         1.663553        -2.874694
 H        -1.468309        -1.043429        -0.725253
 H        -0.098779        -0.090483        -1.457643
