19
Iteration:   842charge 0 multiplicity 1
 O         0.046195        -0.042324         1.121160
 C        -0.938522         0.489008         0.263559
 C        -2.212818         0.615800         1.043363
 C        -1.321214         1.953675         0.640837
 C        -2.042486         2.933132        -0.249061
 C        -2.367031         2.848712        -1.570435
 C        -2.228321         1.575230        -2.517794
 O        -2.003076         0.232726        -1.953773
 C        -0.813308         0.071798        -1.214038
 H         0.921362         0.265321         0.724108
 H        -3.097171         0.541492         0.433793
 H        -2.247629         0.335619         2.095631
 H        -0.771069         2.403895         1.511250
 H        -2.208055         3.970516         0.231276
 H        -2.986209         3.595619        -2.100062
 H        -3.241557         1.393784        -2.979982
 H        -1.422326         1.810305        -3.237990
 H        -0.408169        -0.970127        -1.257510
 H         0.039182         0.670087        -1.628578
