19
Iteration:  1172
 O         0.257423         0.167731         0.866345
 C        -0.956991         0.517466         0.283433
 C        -2.065789         0.474563         1.149402
 C        -1.594433         1.846903         0.596926
 C        -2.292399         2.832841        -0.272059
 C        -2.177406         2.781078        -1.641999
 C        -1.750095         1.673350        -2.568441
 O        -2.187106         0.478899        -1.807766
 C        -1.164887        -0.170063        -1.044737
 H         0.923723         0.876242         0.729590
 H        -3.056399         0.062952         0.810172
 H        -1.990066         0.428795         2.245205
 H        -1.028183         2.284996         1.399564
 H        -2.478141         3.781441         0.183219
 H        -2.400693         3.759609        -2.208506
 H        -2.437173         1.797837        -3.485625
 H        -0.685859         1.563109        -2.884331
 H        -1.537948        -1.202956        -0.911537
 H        -0.229592        -0.247389        -1.622898
