19
Iteration:   367
 O         0.284352         0.339598         0.928999
 C        -0.964969         0.471813         0.333136
 C        -2.263297         0.372997         1.201479
 C        -1.623134         1.832988         0.813170
 C        -2.052497         2.767801        -0.282781
 C        -2.203325         2.776585        -1.624293
 C        -2.017287         1.735472        -2.597119
 O        -2.043660         0.438055        -2.017646
 C        -1.057683        -0.120078        -1.103645
 H         0.828728        -0.263828         0.491335
 H        -3.156493         0.351926         0.607801
 H        -2.138310         0.020227         2.223375
 H        -1.134643         2.379501         1.634505
 H        -2.251325         3.761065         0.164025
 H        -2.110846         3.763572        -2.100619
 H        -2.928130         1.700017        -3.273456
 H        -1.157985         1.798208        -3.231103
 H        -1.330478        -1.194981        -1.081806
 H        -0.098116         0.121929        -1.671345
