19
Iteration:  4274
 O         0.203135         0.174941         0.852823
 C        -1.025019         0.411844         0.299058
 C        -2.145773         0.611158         1.273829
 C        -1.537606         1.828114         0.697167
 C        -2.205547         2.819532        -0.260697
 C        -2.254957         2.813764        -1.644889
 C        -1.816573         1.697212        -2.482074
 O        -2.070052         0.405642        -2.000461
 C        -1.087340        -0.149864        -1.107267
 H         0.765333         0.786845         0.494243
 H        -3.141040         0.359489         0.867603
 H        -2.112677         0.447961         2.378957
 H        -0.834582         2.305258         1.312316
 H        -2.838157         3.599270         0.285638
 H        -2.675561         3.671862        -2.136208
 H        -2.129919         1.662085        -3.524205
 H        -0.759071         1.720121        -2.714928
 H        -1.233309        -1.386455        -1.114638
 H        -0.113844         0.085476        -1.568855
