19
Iteration:  3771
 O         0.196864        -0.015484         1.084277
 C        -0.944578         0.559686         0.303124
 C        -2.195216         0.594017         1.054981
 C        -1.515543         1.945779         0.738734
 C        -2.123882         2.847845        -0.235543
 C        -2.232809         2.788299        -1.600886
 C        -2.096172         1.632035        -2.574674
 O        -2.082038         0.263614        -1.984381
 C        -0.916560         0.027636        -1.196194
 H         1.025170         0.494036         0.934784
 H        -2.987484         0.498115         0.295943
 H        -2.268354         0.220716         2.079402
 H        -1.013915         2.470562         1.616289
 H        -2.533747         3.917748         0.091762
 H        -2.540504         3.810858        -2.007651
 H        -3.058409         1.530143        -3.217179
 H        -1.104468         1.913971        -3.132736
 H        -0.824344        -1.032071        -1.151088
 H        -0.049585         0.373044        -1.755784
