19
Iteration:  2150charge 0 multiplicity 1
 O         0.039374         0.022602         1.177349
 C        -0.873912         0.512953         0.274031
 C        -2.218079         0.546003         0.957596
 C        -1.494875         1.815191         0.683341
 C        -1.930690         2.843553        -0.353647
 C        -2.120190         2.790776        -1.670743
 C        -2.382854         1.610521        -2.516607
 O        -2.058206         0.316642        -1.861916
 C        -0.768209         0.181876        -1.180250
 H         0.893879         0.436278         1.013233
 H        -3.091566         0.172559         0.398664
 H        -2.060592         0.116471         2.024747
 H        -1.103648         2.218060         1.634528
 H        -2.158962         3.885421        -0.028098
 H        -2.352485         3.709774        -2.119551
 H        -3.533320         1.810424        -2.406491
 H        -2.070961         1.715221        -3.623184
 H        -0.509815        -0.875472        -1.153614
 H        -0.058172         0.687273        -1.882771
