19
Iteration:  1864
 O         0.219023         0.068713         0.994492
 C        -0.951905         0.470845         0.288500
 C        -2.258811         0.635321         1.153057
 C        -1.408156         1.882147         0.599045
 C        -2.035367         2.818250        -0.275524
 C        -2.441462         2.628930        -1.545773
 C        -1.957203         1.764244        -2.454037
 O        -2.024904         0.394598        -2.053534
 C        -1.069014        -0.111932        -1.126017
 H         0.924096         0.763485         0.742143
 H        -3.242797         0.731834         0.774503
 H        -2.280813         0.496845         2.195965
 H        -0.946248         2.374108         1.481047
 H        -2.112465         3.830928         0.084610
 H        -2.878325         3.478606        -2.136839
 H        -2.595121         1.784718        -3.402333
 H        -0.936285         1.969540        -2.652261
 H        -1.281984        -1.173133        -0.982350
 H        -0.106598         0.188658        -1.611793
