19
Iteration:  2478charge 0 multiplicity 1
 O         0.148442        -0.052885         1.063606
 C        -0.911053         0.567302         0.334126
 C        -2.294841         0.570139         0.923592
 C        -1.505916         1.929937         0.713836
 C        -1.866824         2.969610        -0.304831
 C        -2.197915         2.769970        -1.578245
 C        -2.375388         1.455707        -2.486614
 O        -2.062349         0.238414        -1.980738
 C        -0.776025         0.218823        -1.150591
 H         0.775634         0.653717         1.402929
 H        -3.125180         0.359671         0.292923
 H        -2.272930         0.137088         1.930840
 H        -1.254815         2.291673         1.647574
 H        -2.075826         3.919177         0.185341
 H        -2.482021         3.684695        -2.088809
 H        -3.429458         1.417303        -2.747533
 H        -1.788444         1.672507        -3.337323
 H        -0.379364        -0.764968        -1.202615
 H        -0.020600         0.792885        -1.603290
