19
Iteration:  1120
 O         0.212250         0.235269         0.786322
 C        -1.040805         0.504448         0.304943
 C        -2.171532         0.645060         1.186181
 C        -1.510881         1.856791         0.642580
 C        -2.109045         2.849196        -0.250935
 C        -2.349912         2.747039        -1.560386
 C        -1.715246         1.660438        -2.461838
 O        -2.049350         0.415170        -1.936020
 C        -1.191396        -0.190477        -1.042358
 H         0.828882         0.007655         0.128785
 H        -3.161691         0.409121         0.704364
 H        -2.072026         0.022191         2.054472
 H        -0.659177         2.261321         1.302089
 H        -2.650564         3.654368         0.367029
 H        -3.188879         3.249337        -2.074635
 H        -2.165353         1.773418        -3.508571
 H        -0.638632         1.717347        -2.553646
 H        -1.450186        -1.214423        -0.993823
 H        -0.197825        -0.222667        -1.626593
