19
Iteration:  3065
 O         0.273527        -0.000814         0.925968
 C        -0.977835         0.485783         0.331419
 C        -2.156154         0.645778         1.220692
 C        -1.462140         1.887574         0.577248
 C        -2.184823         2.808165        -0.325628
 C        -2.442453         2.817597        -1.658357
 C        -1.801486         1.739185        -2.470717
 O        -2.044848         0.467264        -1.963038
 C        -1.142866        -0.136626        -1.065977
 H         1.073848         0.045570         0.305586
 H        -3.057126         0.235372         0.672519
 H        -2.144412         0.611697         2.374194
 H        -0.801040         2.282241         1.307087
 H        -2.804441         3.497701         0.394443
 H        -3.285746         3.428036        -2.100792
 H        -2.249124         1.710413        -3.431837
 H        -0.676706         1.922404        -2.562203
 H        -1.459260        -1.252158        -1.037705
 H        -0.054906         0.012073        -1.413090
