19
Iteration:   976
 O         0.267421         0.174982         0.999922
 C        -0.957609         0.436157         0.288005
 C        -2.360654         0.473858         0.926819
 C        -1.594118         1.766282         0.692092
 C        -1.900573         2.895342        -0.244359
 C        -2.036386         2.836081        -1.616261
 C        -2.273444         1.565072        -2.489290
 O        -2.140171         0.303841        -1.817781
 C        -0.865147         0.103295        -1.166849
 H         0.816279         0.966223         0.859420
 H        -3.245146         0.140292         0.343531
 H        -2.505467         0.397404         2.022065
 H        -1.196953         2.203544         1.569644
 H        -1.837236         3.839112         0.286485
 H        -2.224616         3.786362        -2.065159
 H        -3.386766         1.622444        -2.879332
 H        -1.663163         1.584483        -3.426704
 H        -0.673273        -0.938293        -1.358300
 H        -0.075377         0.737423        -1.719132
