19
Iteration:  2505charge 0 multiplicity 1
 O         0.085212         0.001660         0.955472
 C        -0.987161         0.497250         0.309508
 C        -2.345743         0.695573         1.050118
 C        -1.520610         1.855134         0.734318
 C        -1.868421         2.793456        -0.295928
 C        -2.215878         2.718772        -1.605869
 C        -2.326755         1.434999        -2.443402
 O        -2.034690         0.273333        -1.897594
 C        -0.673993         0.332477        -1.168956
 H         0.909662         0.496809         0.702081
 H        -3.227832         0.539686         0.337945
 H        -2.717628         0.170079         1.965292
 H        -0.890449         2.309761         1.615551
 H        -1.755661         3.841626         0.081860
 H        -2.323442         3.692331        -2.135419
 H        -3.385019         1.323237        -2.899779
 H        -1.722296         1.633871        -3.462123
 H        -0.175642        -0.665352        -1.358146
 H        -0.073788         1.234630        -1.501962
