19
Iteration:  3169
 O         0.205537         0.019117         0.984678
 C        -0.937695         0.557822         0.316529
 C        -2.195186         0.569200         1.042243
 C        -1.514568         1.878162         0.725964
 C        -2.120128         2.886066        -0.242955
 C        -2.242914         2.866078        -1.628955
 C        -2.029135         1.621466        -2.517458
 O        -2.084460         0.325118        -1.931126
 C        -1.025574        -0.022635        -1.153545
 H         1.028915         0.476206         0.643685
 H        -3.077360         0.195896         0.564089
 H        -2.073571         0.105134         2.038238
 H        -0.881652         2.239961         1.588348
 H        -2.467991         3.728214         0.346328
 H        -2.741043         3.756736        -2.210765
 H        -2.736088         1.584541        -3.440979
 H        -1.006887         1.856628        -2.957689
 H        -0.995016        -1.094977        -1.006600
 H        -0.022273         0.289647        -1.698271
