19
Iteration:   312charge 0 multiplicity 1
 O         0.339611         0.131716         0.721578
 C        -0.945388         0.450698         0.256825
 C        -2.261544         0.593377         1.079383
 C        -1.601250         1.862576         0.688496
 C        -2.316146         2.814231        -0.209981
 C        -2.256439         2.810503        -1.528673
 C        -1.820255         1.672071        -2.446536
 O        -2.071514         0.443626        -1.849454
 C        -1.014824        -0.107883        -1.130046
 H         0.359559         0.277023         1.665842
 H        -3.157365         0.305136         0.547169
 H        -2.303399         0.195395         2.104985
 H        -0.905446         2.313563         1.376022
 H        -2.603186         3.740560         0.285828
 H        -2.674341         3.636784        -2.088713
 H        -2.315958         1.637186        -3.457904
 H        -0.782136         1.720449        -2.874273
 H        -1.135413        -1.208332        -1.174759
 H         0.006122        -0.043058        -1.635601
