19
Iteration:  2419
 O         0.232530         0.069814         1.074925
 C        -0.975438         0.499155         0.317824
 C        -2.293478         0.534726         0.960890
 C        -1.508261         1.847524         0.629239
 C        -1.968426         2.823134        -0.323554
 C        -2.267968         2.849715        -1.606510
 C        -2.132890         1.588692        -2.499309
 O        -2.065321         0.331539        -1.820763
 C        -0.859928         0.047240        -1.161242
 H         0.946073         0.225643         0.493196
 H        -3.278962         0.561566         0.361610
 H        -2.376242         0.390521         2.057081
 H        -1.239161         2.412358         1.591034
 H        -2.310876         3.778775         0.105286
 H        -2.955811         3.680077        -1.843575
 H        -3.008826         1.586024        -3.179678
 H        -1.311079         1.659049        -3.192638
 H        -0.583872        -1.010467        -1.401300
 H        -0.287268         0.925537        -1.634003
