19
Iteration:  1820
 O         0.150568        -0.028322         1.004707
 C        -0.939874         0.567489         0.212664
 C        -2.230721         0.621551         1.002714
 C        -1.517360         1.939936         0.650913
 C        -2.172531         2.858558        -0.257964
 C        -2.168693         2.776122        -1.556541
 C        -2.054425         1.573914        -2.387598
 O        -2.085898         0.317200        -1.906819
 C        -0.874633         0.037674        -1.183187
 H         0.936576         0.560555         0.726426
 H        -3.189859         0.308932         0.619266
 H        -2.105860         0.245417         1.974963
 H        -0.842290         2.417088         1.411894
 H        -2.216963         3.829433         0.238873
 H        -2.412193         3.765736        -2.102700
 H        -3.103054         1.611350        -2.928831
 H        -1.330105         1.650301        -3.210977
 H        -1.068394        -1.047792        -1.053130
 H        -0.020054         0.448239        -1.788380
