19
Iteration:  4598charge 0 multiplicity 1
 O         0.315006         0.072751         0.979940
 C        -0.931840         0.439921         0.316399
 C        -2.262672         0.545481         1.071068
 C        -1.581374         1.832456         0.618727
 C        -2.148658         2.900848        -0.243472
 C        -2.313260         2.857247        -1.609892
 C        -1.930947         1.649688        -2.546896
 O        -2.069478         0.406462        -1.895698
 C        -1.035093        -0.060885        -1.100971
 H         0.946470         0.781190         0.744244
 H        -3.207675         0.319231         0.513367
 H        -2.352348         0.270387         2.164261
 H        -1.034071         2.212942         1.518976
 H        -2.406936         3.757830         0.377364
 H        -2.751901         3.754707        -2.177695
 H        -2.589568         1.564744        -3.432043
 H        -0.848389         1.714682        -2.938765
 H        -0.977708        -1.255821        -1.207819
 H        -0.074213         0.156335        -1.743406
