19
Iteration:  1375charge 0 multiplicity 1
 O         0.184578         0.164305         1.060363
 C        -0.960017         0.491272         0.289680
 C        -2.306745         0.396370         0.921292
 C        -1.586615         1.853781         0.758737
 C        -1.809144         2.854690        -0.291662
 C        -2.166132         2.812823        -1.606992
 C        -2.284983         1.604090        -2.620072
 O        -2.108725         0.370936        -1.778063
 C        -0.889486         0.050323        -1.154542
 H         0.943352         0.732573         0.669775
 H        -3.124277         0.266404         0.197298
 H        -2.306680         0.082392         2.012022
 H        -1.009816         2.227700         1.565658
 H        -1.629179         3.777265         0.169174
 H        -2.258053         3.856543        -2.063103
 H        -3.303777         1.337910        -3.022826
 H        -1.568871         1.877650        -3.482232
 H        -0.741319        -1.021621        -1.193060
 H         0.003769         0.458419        -1.693319
