19
Iteration:  2223
 O         0.171530         0.019387         0.985058
 C        -0.956855         0.558272         0.294296
 C        -2.178679         0.651022         1.076820
 C        -1.491459         1.933827         0.692124
 C        -2.142863         2.908953        -0.224058
 C        -2.219135         2.777963        -1.572022
 C        -2.043912         1.601370        -2.538256
 O        -2.071396         0.299575        -2.034114
 C        -0.949768        -0.086357        -1.108808
 H         0.869904         0.605565         1.169656
 H        -3.132731         0.446887         0.609393
 H        -1.997105         0.350058         2.146390
 H        -0.938616         2.279352         1.570018
 H        -2.599121         3.751499         0.267965
 H        -2.512220         3.648502        -2.158350
 H        -2.986059         1.747565        -3.035363
 H        -1.348988         1.845051        -3.276338
 H        -0.972970        -1.174903        -1.134475
 H        -0.006066         0.171958        -1.596480
