19
Iteration:  4564
 O         0.053407        -0.023789         1.147983
 C        -0.891191         0.532263         0.210559
 C        -2.180153         0.629438         0.998916
 C        -1.380175         1.867688         0.561689
 C        -2.125180         2.935357        -0.223892
 C        -2.464979         2.805129        -1.518017
 C        -2.056800         1.596814        -2.510132
 O        -1.946165         0.361489        -1.956843
 C        -0.906935        -0.016853        -1.176471
 H         1.050303         0.099545         0.873618
 H        -3.137047         0.570730         0.432709
 H        -2.108650         0.313542         2.075099
 H        -0.845792         2.335425         1.407815
 H        -2.392845         3.771884         0.293075
 H        -3.045049         3.640219        -1.898963
 H        -2.869483         1.503163        -3.277746
 H        -1.056064         1.874249        -3.050030
 H        -1.108637        -1.202972        -1.100499
 H         0.047482         0.411261        -1.699315
