19
Iteration:  3602
 O         0.133669         0.076766         1.058334
 C        -0.913036         0.521710         0.192804
 C        -2.234931         0.532450         0.998574
 C        -1.624048         1.818857         0.653970
 C        -2.013092         2.934497        -0.253864
 C        -2.156260         2.845532        -1.545747
 C        -2.111225         1.581441        -2.493339
 O        -2.107548         0.330297        -1.816794
 C        -0.869556         0.036912        -1.248461
 H         0.898869         0.584585         0.823234
 H        -3.100118         0.034439         0.501792
 H        -1.934701         0.176281         1.969185
 H        -1.057352         2.221398         1.610786
 H        -2.223266         3.934009         0.129828
 H        -2.438950         3.843985        -2.030670
 H        -3.091640         1.449182        -3.073647
 H        -1.314419         1.529155        -3.183898
 H        -0.829704        -1.113134        -1.191154
 H        -0.079041         0.490820        -1.838392
