19
Iteration:  4491charge 0 multiplicity 1
 O         0.136144        -0.091682         1.081613
 C        -0.954371         0.566908         0.296091
 C        -2.302498         0.630062         1.006354
 C        -1.537344         1.849940         0.693406
 C        -1.959743         2.889282        -0.292694
 C        -2.212145         2.877649        -1.629391
 C        -2.348298         1.544187        -2.483359
 O        -1.947036         0.290361        -1.965044
 C        -0.776176         0.101861        -1.174834
 H         0.873046         0.536909         1.298712
 H        -3.232126         0.258962         0.501008
 H        -2.154100         0.344779         2.095183
 H        -1.014217         2.327877         1.562043
 H        -2.086458         3.912391         0.452413
 H        -2.519845         3.850602        -2.162950
 H        -3.326190         1.494728        -2.990767
 H        -1.770068         1.736314        -3.388857
 H        -0.505490        -0.963920        -1.244213
 H        -0.015058         0.713743        -1.752053
