19
Iteration:  2773
 O         0.222788         0.068466         1.064778
 C        -0.979113         0.547602         0.273792
 C        -2.205200         0.563518         1.187017
 C        -1.522317         1.865306         0.643090
 C        -2.135816         2.842758        -0.241286
 C        -2.174187         2.861537        -1.611609
 C        -2.052037         1.627188        -2.621010
 O        -2.090379         0.305860        -1.943485
 C        -0.979178        -0.027048        -1.169180
 H         0.993685         0.320143         0.570268
 H        -3.137657         0.278760         0.604437
 H        -2.146943         0.204389         2.253502
 H        -0.971718         2.363825         1.425112
 H        -2.613951         3.761856         0.206486
 H        -2.503441         3.904198        -2.023034
 H        -2.923390         1.589372        -3.278396
 H        -1.116035         1.867136        -3.235234
 H        -0.924327        -1.131901        -1.081155
 H        -0.015849         0.399819        -1.685536
