19
Iteration:   880
 O         0.143234        -0.070953         1.073359
 C        -0.957211         0.562562         0.332868
 C        -2.324558         0.727062         0.855116
 C        -1.345936         1.938999         0.738353
 C        -1.840221         2.911841        -0.278619
 C        -2.416999         2.711572        -1.469340
 C        -2.353918         1.517487        -2.428414
 O        -1.968214         0.208503        -2.025080
 C        -0.787850         0.138900        -1.220966
 H         0.615656         0.576139         1.564742
 H        -3.103594         0.642449         0.058759
 H        -2.661869         0.411748         1.840597
 H        -0.965400         2.326573         1.661180
 H        -1.770241         3.887071         0.063770
 H        -2.865712         3.613674        -1.867055
 H        -3.253376         1.354286        -2.949921
 H        -1.713157         1.852405        -3.306889
 H        -0.508263        -0.893884        -1.290184
 H        -0.062127         0.833900        -1.672078
