19
Iteration:   538
 O         0.252020         0.166504         0.990568
 C        -0.937881         0.426212         0.305362
 C        -2.360536         0.431155         0.855956
 C        -1.564499         1.750149         0.605150
 C        -1.854466         2.902005        -0.337266
 C        -2.224113         2.802830        -1.619885
 C        -2.244892         1.591223        -2.520762
 O        -2.134110         0.392494        -1.649511
 C        -0.773348         0.175435        -1.156778
 H         0.097649         0.131492         1.975080
 H        -3.127154         0.075110         0.156154
 H        -2.449672         0.028330         1.870746
 H        -1.096159         2.122442         1.511745
 H        -1.830650         3.954108         0.061963
 H        -2.406598         3.741020        -2.106103
 H        -3.253539         1.478354        -2.809017
 H        -1.606777         1.543142        -3.395184
 H        -0.523282        -0.838794        -1.471627
 H         0.016743         0.796324        -1.604907
