19
Iteration:  1169charge 0 multiplicity 1
 O         0.264107         0.167149         0.876267
 C        -0.961828         0.496437         0.281628
 C        -2.035803         0.476506         1.158558
 C        -1.616175         1.853609         0.576535
 C        -2.302348         2.846216        -0.281396
 C        -2.164731         2.825167        -1.625584
 C        -1.737528         1.666358        -2.557801
 O        -2.221362         0.462961        -1.823895
 C        -1.149998        -0.172239        -1.048528
 H         1.003382         0.843418         0.699334
 H        -2.975596         0.110824         0.793543
 H        -1.961459         0.385538         2.241801
 H        -1.155846         2.264377         1.453310
 H        -2.543200         3.806682         0.115051
 H        -2.420386         3.732101        -2.194126
 H        -2.376131         1.773154        -3.391770
 H        -0.680720         1.556310        -2.907629
 H        -1.555970        -1.231290        -0.924974
 H        -0.217010        -0.302225        -1.541693
