19
Iteration:  4304charge 0 multiplicity 1
 O         0.133828        -0.020486         1.008308
 C        -0.934288         0.535000         0.247357
 C        -2.147935         0.684009         1.136727
 C        -1.396393         1.908960         0.575908
 C        -2.208021         2.891697        -0.269596
 C        -2.474720         2.745218        -1.562919
 C        -1.854117         1.712047        -2.449505
 O        -2.036019         0.358700        -2.039305
 C        -1.032821        -0.119293        -1.118909
 H         1.081718         0.155929         0.652497
 H        -3.147494         0.465957         0.811921
 H        -2.016216         0.542008         2.206472
 H        -0.783822         2.331788         1.325285
 H        -2.797001         3.579894         0.520198
 H        -3.089577         3.442242        -1.990340
 H        -2.220211         1.741411        -3.492888
 H        -0.706867         1.854502        -2.633995
 H        -1.113647        -1.088726        -0.864281
 H        -0.011961         0.190930        -1.531833
