19
Iteration:  1334charge 0 multiplicity 1
 O         0.241757         0.049318         1.053646
 C        -0.975531         0.525779         0.277348
 C        -2.326407         0.513753         0.864123
 C        -1.636726         1.876593         0.777161
 C        -1.888543         3.007592        -0.243972
 C        -1.953793         2.745073        -1.590605
 C        -2.404522         1.512890        -2.435659
 O        -2.103036         0.223644        -1.914638
 C        -0.836613         0.191098        -1.220638
 H         0.791279         0.790657         1.166267
 H        -3.149815         0.312413         0.175785
 H        -2.502157         0.278887         1.944498
 H        -1.206870         2.007024         1.751906
 H        -1.826638         4.059790         0.000325
 H        -1.901371         3.690503        -2.257957
 H        -3.453320         1.608426        -2.362094
 H        -2.146521         1.339311        -3.476770
 H        -0.329036        -0.819775        -1.350156
 H        -0.041770         0.804068        -1.722676
