19
Iteration:  2023
 O         0.214034         0.033979         1.021326
 C        -0.943225         0.439522         0.332180
 C        -2.257200         0.597780         1.063108
 C        -1.474625         1.802994         0.735380
 C        -2.027566         2.851109        -0.351323
 C        -2.321969         2.830449        -1.674128
 C        -2.198217         1.597848        -2.579008
 O        -2.057412         0.372895        -1.823049
 C        -0.869173         0.108125        -1.110932
 H         0.925490         0.214507         0.290833
 H        -2.990204         0.385953         0.251837
 H        -2.722567         0.329402         2.052121
 H        -1.118694         2.326740         1.661577
 H        -2.084352         3.845855         0.195718
 H        -2.490213         3.812913        -2.316867
 H        -2.885615         1.542581        -3.335263
 H        -1.114719         1.794382        -2.996967
 H        -0.820951        -1.073335        -1.051114
 H         0.083690         0.493908        -1.674832
