19
Iteration:  2240charge 0 multiplicity 1
 O         0.186418         0.050316         1.063714
 C        -0.950196         0.524286         0.243061
 C        -2.176891         0.661740         1.258909
 C        -1.480190         1.903108         0.715410
 C        -2.137302         2.789082        -0.250842
 C        -2.251300         2.779328        -1.587231
 C        -2.033000         1.713867        -2.552776
 O        -2.054288         0.276060        -2.086932
 C        -1.022630        -0.042233        -1.253616
 H         0.797934         0.738081         0.940575
 H        -3.184597         0.422886         0.963914
 H        -2.013194         0.374460         2.248572
 H        -0.909494         2.573205         1.354396
 H        -2.231272         3.787463         0.220823
 H        -2.784695         3.631941        -2.127751
 H        -2.803704         1.515995        -3.415669
 H        -0.889252         1.710172        -2.811653
 H        -1.312696        -1.096899        -0.956194
 H         0.019393         0.085684        -1.702527
