19
Iteration:  3671
 O         0.044219        -0.071909         1.037271
 C        -0.981661         0.564840         0.263859
 C        -2.310018         0.529165         0.886340
 C        -1.582477         1.867796         0.716847
 C        -1.866089         2.887543        -0.274928
 C        -2.141276         2.773324        -1.667740
 C        -2.426095         1.495154        -2.383725
 O        -1.929379         0.293758        -1.817191
 C        -0.716566         0.333106        -1.227206
 H         0.819272         0.569309         1.228545
 H        -3.128706         0.231280         0.243151
 H        -2.118637         0.042930         1.856839
 H        -1.169470         2.297271         1.538685
 H        -1.726939         3.942981         0.064781
 H        -2.027045         3.598099        -2.367339
 H        -3.585042         1.336773        -2.394551
 H        -2.058747         1.530267        -3.376647
 H        -0.329416        -0.664070        -1.178970
 H        -0.038011         1.066546        -1.670104
