19
Iteration:   995
 O         0.111949         0.122495         0.962514
 C        -0.968563         0.564377         0.195304
 C        -2.184688         0.419650         1.006836
 C        -1.631740         1.898007         0.721486
 C        -1.922793         2.910905        -0.261818
 C        -2.185311         2.802339        -1.591172
 C        -2.200022         1.589205        -2.401833
 O        -2.078746         0.343174        -1.855433
 C        -0.856996         0.012943        -1.154495
 H         0.943240         0.379868         0.622405
 H        -3.031612         0.348601         0.312900
 H        -2.176565        -0.198483         1.861579
 H        -1.121262         2.294010         1.615051
 H        -1.947540         4.009890        -0.017062
 H        -2.104143         3.628842        -2.274271
 H        -3.133287         1.638885        -3.009669
 H        -1.470461         1.764350        -3.200197
 H        -0.919079        -1.077473        -0.870526
 H         0.011187         0.313401        -1.695647
