19
Iteration:  3095charge 0 multiplicity 1
 O         0.177237        -0.078105         0.935267
 C        -0.982321         0.549856         0.210657
 C        -2.058291         0.727262         1.151621
 C        -1.432609         2.007819         0.646088
 C        -2.295668         2.817869        -0.267503
 C        -2.459032         2.727245        -1.588450
 C        -1.723422         1.659316        -2.416132
 O        -2.080304         0.419126        -1.983800
 C        -1.097864        -0.118366        -1.153283
 H         1.048430         0.159401         0.753402
 H        -3.100974         0.475222         0.906911
 H        -1.791365         0.393209         2.201425
 H        -0.760855         2.399498         1.362462
 H        -2.916918         3.533121         0.387394
 H        -3.100864         3.551840        -2.093193
 H        -2.119325         1.767540        -3.534798
 H        -0.620422         1.797141        -2.341367
 H        -1.278924        -1.207473        -1.062086
 H        -0.139078         0.142638        -1.583969
