19
Iteration:  4061
 O         0.183613         0.029335         1.094084
 C        -0.941361         0.482364         0.291859
 C        -2.348852         0.464451         0.867565
 C        -1.665717         1.840063         0.692287
 C        -1.830294         2.911284        -0.309710
 C        -2.070179         2.796662        -1.635973
 C        -2.336547         1.514071        -2.453020
 O        -2.068589         0.326508        -1.785723
 C        -0.782690         0.238617        -1.242527
 H         0.788140         0.765171         1.054416
 H        -3.163681        -0.058439         0.331212
 H        -2.320468         0.233773         1.950554
 H        -1.405056         2.267054         1.669875
 H        -1.966442         3.829166         0.191551
 H        -2.139682         3.813030        -2.181755
 H        -3.399345         1.644171        -2.638268
 H        -1.811187         1.634193        -3.496123
 H        -0.545410        -0.803696        -1.385423
 H         0.019016         0.923961        -1.725998
