19
Iteration:  4417charge 0 multiplicity 1
 O         0.234155         0.105416         0.995968
 C        -0.998943         0.504626         0.320141
 C        -2.295354         0.382292         1.010775
 C        -1.671627         1.798281         0.705405
 C        -1.955202         2.914109        -0.298050
 C        -1.995937         2.856498        -1.688660
 C        -2.260921         1.583251        -2.534287
 O        -2.075211         0.314099        -1.802318
 C        -0.901351         0.180673        -1.092686
 H         0.940348         0.615832         0.735912
 H        -2.971589        -0.010650         0.213434
 H        -2.403603        -0.061133         2.028104
 H        -1.255809         2.237011         1.681862
 H        -2.175963         3.882301         0.221304
 H        -1.924725         3.920592        -2.244199
 H        -3.207582         1.594305        -3.142832
 H        -1.595381         1.622449        -3.468555
 H        -0.724464        -0.852914        -1.252408
 H        -0.086854         0.620958        -1.709825
