19
Iteration:  4245charge 0 multiplicity 1
 O         0.308962         0.229608         0.867769
 C        -0.933484         0.539499         0.279015
 C        -2.147387         0.456954         1.163767
 C        -1.726742         1.839787         0.725692
 C        -2.213293         2.841598        -0.269397
 C        -2.106645         2.811303        -1.598343
 C        -1.803424         1.658991        -2.482830
 O        -2.162648         0.406881        -1.980135
 C        -1.167022        -0.147500        -1.053709
 H         0.848929         0.901744         0.399603
 H        -3.002289        -0.046324         0.673554
 H        -1.943725         0.347480         2.227349
 H        -1.229734         2.355339         1.624674
 H        -2.441658         3.809536         0.080370
 H        -2.378322         3.628539        -2.341279
 H        -2.295427         1.711605        -3.475817
 H        -0.652742         1.584067        -2.686014
 H        -1.584983        -1.136666        -0.972383
 H        -0.302805        -0.419902        -1.679810
