19
Iteration:  2096
 O         0.093403         0.006782         1.004751
 C        -0.940063         0.576221         0.316374
 C        -2.381254         0.635039         0.853320
 C        -1.444775         1.885508         0.756423
 C        -1.724411         2.887068        -0.285829
 C        -2.234303         2.665655        -1.523224
 C        -2.400403         1.439700        -2.412225
 O        -1.953614         0.251007        -1.956416
 C        -0.817270         0.256897        -1.179249
 H         0.796343         0.680041         1.202913
 H        -3.259318         0.611682         0.161259
 H        -2.807528         0.440959         1.907892
 H        -1.109790         2.214321         1.754321
 H        -1.871060         3.915517         0.072024
 H        -2.678808         3.550914        -1.906790
 H        -3.469423         1.372463        -2.982152
 H        -1.686972         1.686164        -3.127270
 H        -0.464876        -0.767777        -1.210733
 H        -0.180932         0.925907        -1.728837
