19
Iteration:   142charge 0 multiplicity 1
 O         0.361815         0.174346         1.119191
 C        -0.877457         0.461401         0.332754
 C        -2.313926         0.285800         0.801652
 C        -1.537950         1.769107         0.630180
 C        -1.989206         2.893080        -0.245957
 C        -2.172454         2.867521        -1.615760
 C        -2.273907         1.651867        -2.448120
 O        -2.191021         0.414518        -1.813153
 C        -0.862108         0.146950        -1.245584
 H         0.017173        -0.211653         1.947812
 H        -3.059815        -0.088186         0.108117
 H        -2.531189         0.003474         1.816013
 H        -1.306885         2.120365         1.660639
 H        -1.676865         3.874309         0.169851
 H        -2.301740         3.754783        -2.225793
 H        -3.195135         1.584757        -3.031032
 H        -1.454308         1.723515        -3.289655
 H        -0.633190        -0.888813        -1.500358
 H        -0.075299         0.724006        -1.833003
