19
Iteration:   346charge 0 multiplicity 1
 O         0.225954         0.376082         0.867522
 C        -1.011815         0.537311         0.239429
 C        -2.177596         0.368672         1.309797
 C        -1.676744         1.732150         0.704842
 C        -2.080503         2.837717        -0.201762
 C        -2.097169         2.839824        -1.578912
 C        -1.931482         1.660967        -2.594416
 O        -2.085448         0.356114        -2.065439
 C        -1.096289        -0.023826        -1.127581
 H         0.274021        -0.565824         1.232668
 H        -2.953774        -0.330171         1.038606
 H        -1.693399         0.351272         2.281485
 H        -1.039914         2.160302         1.520944
 H        -2.194232         3.813721         0.304800
 H        -2.494963         3.805347        -2.017766
 H        -2.769326         1.831397        -3.329340
 H        -0.924978         1.589014        -3.042765
 H        -1.278325        -1.122054        -0.976777
 H        -0.130250         0.253025        -1.651090
