19
Iteration:  4015charge 0 multiplicity 1
 O         0.263359         0.167856         1.075634
 C        -0.894431         0.537587         0.333406
 C        -2.288317         0.399312         0.969925
 C        -1.714045         1.782753         0.779025
 C        -1.876152         2.826792        -0.270646
 C        -2.022446         2.741243        -1.670021
 C        -2.213353         1.614838        -2.577139
 O        -2.178635         0.380317        -1.888267
 C        -0.934088         0.106978        -1.164671
 H         0.996481         0.627678         0.774635
 H        -3.132225         0.120891         0.328701
 H        -2.440121         0.121381         2.019335
 H        -1.503918         2.264355         1.714442
 H        -1.882544         3.783669         0.105976
 H        -2.199322         3.675854        -2.131993
 H        -3.238796         1.743547        -2.950976
 H        -1.540211         1.850806        -3.447610
 H        -0.729505        -0.909440        -1.233380
 H        -0.183921         0.752841        -1.745417
