19
Iteration:  2960
 O         0.130891        -0.001132         1.088505
 C        -0.868137         0.490138         0.303354
 C        -2.221462         0.461022         1.038224
 C        -1.559793         1.862300         0.607904
 C        -2.008739         2.976668        -0.292777
 C        -2.204006         2.844167        -1.673147
 C        -2.225926         1.592028        -2.518918
 O        -2.071016         0.363177        -1.788671
 C        -0.842351         0.062068        -1.217402
 H         0.946277         0.424963         1.217670
 H        -3.017538         0.305392         0.342987
 H        -2.364863         0.135306         2.081805
 H        -1.084256         2.392419         1.500143
 H        -2.097567         3.944574         0.094366
 H        -2.649827         3.672862        -2.199194
 H        -3.271154         1.343155        -3.059630
 H        -1.560294         1.666453        -3.385821
 H        -0.526884        -0.926222        -1.507972
 H         0.018481         0.703891        -1.616974
