19
Iteration:  4340
 O         0.071948        -0.090335         1.058203
 C        -0.889980         0.531367         0.218649
 C        -2.212123         0.776548         0.957143
 C        -1.361080         1.950014         0.585071
 C        -2.104763         2.939621        -0.208503
 C        -2.583174         2.680437        -1.467910
 C        -1.939807         1.635295        -2.468607
 O        -2.005662         0.345191        -1.966997
 C        -0.856220        -0.048446        -1.132402
 H         1.052599        -0.100705         0.742796
 H        -3.183375         0.718593         0.375597
 H        -2.231942         0.573606         2.050486
 H        -0.717264         2.302432         1.410630
 H        -2.764648         3.691337         0.305478
 H        -3.198859         3.484336        -2.041494
 H        -2.632812         1.763331        -3.339378
 H        -0.892560         2.030932        -2.685107
 H        -1.036730        -1.208829        -1.117443
 H         0.095588         0.006694        -1.737182
