19
Iteration:  2872charge 0 multiplicity 1
 O         0.061172        -0.090904         1.046099
 C        -0.977133         0.593746         0.288917
 C        -2.242589         0.562618         0.948948
 C        -1.492847         2.003543         0.788235
 C        -1.903348         2.905918        -0.319010
 C        -2.169733         2.734684        -1.617981
 C        -2.435341         1.490477        -2.412676
 O        -1.908338         0.242742        -2.004117
 C        -0.793017         0.208466        -1.178391
 H         0.469066         0.563536         1.573360
 H        -3.225740         0.397002         0.411496
 H        -2.095173         0.035276         1.942241
 H        -1.018447         2.557860         1.606099
 H        -1.969780         3.920927         0.054608
 H        -2.318613         3.717856        -2.170576
 H        -3.527130         1.489761        -2.576320
 H        -2.163336         1.764280        -3.472123
 H        -0.365439        -0.768562        -1.314996
 H         0.127517         0.806520        -1.482041
