19
Iteration:  1082
 O         0.171793        -0.099322         1.021402
 C        -0.954009         0.520675         0.214803
 C        -2.040826         0.809878         1.196305
 C        -1.406697         1.967091         0.662632
 C        -2.282834         2.910810        -0.267515
 C        -2.484233         2.765132        -1.551377
 C        -1.847435         1.682380        -2.416422
 O        -2.031539         0.301348        -2.131218
 C        -1.117324        -0.114121        -1.148718
 H         1.038949         0.369652         0.758399
 H        -2.903764         0.415127         0.703581
 H        -1.867368         0.342226         2.176460
 H        -0.592738         2.477961         1.141206
 H        -2.681585         3.728438         0.305865
 H        -3.205377         3.443255        -1.993063
 H        -2.203474         1.725669        -3.434296
 H        -0.734128         1.901733        -2.401031
 H        -1.307698        -1.252202        -1.060066
 H        -0.008018         0.030820        -1.499664
