19
Iteration:  1888charge 0 multiplicity 1
 O         0.157731         0.002112         0.957962
 C        -0.927684         0.468408         0.249864
 C        -2.158666         0.687179         1.122104
 C        -1.464822         1.968605         0.628009
 C        -2.238376         2.859956        -0.199931
 C        -2.353154         2.913387        -1.597320
 C        -1.866329         1.720280        -2.484870
 O        -2.051555         0.306388        -1.995373
 C        -0.990186        -0.160042        -1.117434
 H         1.002893         0.226808         0.486447
 H        -3.189174         0.496181         0.878950
 H        -1.837365         0.322663         2.109211
 H        -0.727830         2.494190         1.238943
 H        -2.770991         3.613542         0.346850
 H        -3.254980         3.283826        -2.047049
 H        -2.494365         1.639356        -3.347076
 H        -0.838633         1.694602        -2.675470
 H        -1.379983        -1.172760        -0.738713
 H        -0.032278        -0.104041        -1.640071
