19
Iteration:  2863
 O         0.103929        -0.066474         1.105253
 C        -0.938443         0.571052         0.272565
 C        -2.256599         0.584610         0.965080
 C        -1.485709         1.906769         0.770317
 C        -1.894226         2.894790        -0.303988
 C        -2.148471         2.715632        -1.631799
 C        -2.460841         1.584611        -2.490353
 O        -1.962102         0.247731        -2.004100
 C        -0.753354         0.225495        -1.177195
 H         0.350911         0.665275         1.606406
 H        -3.230094         0.668500         0.508592
 H        -2.182306         0.012243         1.915186
 H        -1.238449         2.312231         1.828600
 H        -1.911387         3.916011        -0.088058
 H        -2.602780         3.541358        -2.180097
 H        -3.521979         1.521083        -2.460194
 H        -1.982849         1.523928        -3.535543
 H        -0.423731        -0.860263        -1.108429
 H        -0.079655         0.913636        -1.740841
