19
Iteration:   426charge 0 multiplicity 1
 O         0.055361        -0.106342         1.070480
 C        -0.815508         0.617270         0.211259
 C        -2.146824         0.602537         0.897952
 C        -1.445038         1.904409         0.654190
 C        -2.071428         2.864497        -0.264285
 C        -2.461899         2.739637        -1.538113
 C        -2.157318         1.617675        -2.522510
 O        -2.063069         0.339712        -1.827093
 C        -0.782235         0.070463        -1.203584
 H         0.615580         0.515088         1.656998
 H        -3.164877         0.627214         0.514398
 H        -2.134319         0.104125         1.878114
 H        -0.929730         2.529024         1.403682
 H        -2.131360         3.870006         0.092211
 H        -2.906252         3.659103        -1.941371
 H        -2.768736         1.710811        -3.397749
 H        -1.158663         1.886096        -2.867241
 H        -0.644320        -1.029088        -0.993583
 H         0.090061         0.306522        -1.835165
