19
Iteration:  1795
 O         0.167425         0.000300         1.047971
 C        -0.908188         0.527541         0.351431
 C        -2.235047         0.392115         0.949133
 C        -1.543186         1.915492         0.711014
 C        -1.962001         2.928928        -0.353203
 C        -2.181599         2.827859        -1.673732
 C        -2.207260         1.596915        -2.543613
 O        -2.147034         0.366867        -1.786326
 C        -0.806309         0.097782        -1.136890
 H         0.983469         0.215793         0.572070
 H        -3.168952         0.211629         0.393617
 H        -2.424844         0.164778         2.037881
 H        -1.136670         2.334642         1.612696
 H        -2.112163         3.908640         0.095384
 H        -2.548407         3.786839        -2.089942
 H        -3.253458         1.542742        -3.001650
 H        -1.528262         1.614204        -3.371560
 H        -0.795590        -0.928618        -1.206603
 H        -0.030597         0.751814        -1.646388
