19
Iteration:  3400charge 0 multiplicity 1
 O         0.334249         0.102905         0.971589
 C        -0.981142         0.546343         0.319008
 C        -2.330906         0.494679         1.057899
 C        -1.511901         1.837702         0.738421
 C        -2.041333         2.929765        -0.245098
 C        -2.236634         2.762332        -1.537592
 C        -1.951733         1.593892        -2.546958
 O        -2.138547         0.372354        -1.959043
 C        -1.067127         0.021718        -1.153475
 H         0.980073         0.801558         0.688238
 H        -3.082936         0.292806         0.277682
 H        -2.430384        -0.030358         2.044240
 H        -1.058696         2.128697         1.657683
 H        -2.077768         3.970827         0.177956
 H        -2.784716         3.447686        -2.248725
 H        -2.739622         1.552452        -3.246227
 H        -0.998533         1.735572        -3.122038
 H        -1.180247        -1.059392        -1.133415
 H        -0.122460         0.240826        -1.655111
