19
Iteration:   109
 O         0.243127         0.024773         0.839366
 C        -0.983015         0.558708         0.307891
 C        -2.332344         0.436166         1.065216
 C        -1.698610         1.833956         0.823357
 C        -1.934389         2.878000        -0.273374
 C        -2.186806         2.838779        -1.575675
 C        -2.342820         1.602963        -2.500708
 O        -1.915255         0.372783        -1.961811
 C        -0.755570         0.178126        -1.176259
 H         0.089775        -0.497727         1.593074
 H        -3.204381         0.001568         0.583089
 H        -2.094152         0.114633         2.058078
 H        -1.364876         2.300605         1.757543
 H        -1.736068         3.886305         0.115435
 H        -2.347349         3.736076        -2.131342
 H        -3.380017         1.449080        -2.784527
 H        -1.695378         1.837548        -3.430563
 H        -0.662006        -0.891743        -1.048700
 H         0.145069         0.706330        -1.584733
