19
Iteration:  4375
 O         0.117003         0.010441         1.090857
 C        -0.953494         0.490730         0.283520
 C        -2.254095         0.571517         1.061935
 C        -1.421050         1.853160         0.676801
 C        -2.012787         2.944109        -0.239458
 C        -2.387272         2.779018        -1.578349
 C        -2.086004         1.632976        -2.529161
 O        -2.076613         0.283421        -2.004252
 C        -0.837362         0.071425        -1.184427
 H         0.829203         0.664374         0.882967
 H        -3.243981         0.583549         0.611793
 H        -2.234363         0.237957         2.105773
 H        -0.739073         2.287789         1.484768
 H        -2.283804         3.781030         0.263991
 H        -2.660823         3.801965        -2.046567
 H        -2.831747         1.526260        -3.348967
 H        -1.146946         1.778961        -3.134341
 H        -0.759646        -1.148899        -1.205396
 H         0.030825         0.582184        -1.665020
