19
Iteration:  1231
 O         0.076124        -0.019901         1.023831
 C        -0.919873         0.587137         0.214810
 C        -2.195290         0.672498         1.046139
 C        -1.434465         1.930660         0.694976
 C        -2.040819         2.934787        -0.256053
 C        -2.375775         2.767906        -1.554246
 C        -2.110109         1.613797        -2.415698
 O        -2.034577         0.224552        -1.997380
 C        -0.876122        -0.027151        -1.185783
 H         0.907877         0.541812         0.832828
 H        -3.138121         0.699637         0.570316
 H        -1.988703         0.196613         1.993080
 H        -0.861056         2.462427         1.521696
 H        -2.195621         3.893811         0.330590
 H        -2.801847         3.534341        -2.118542
 H        -2.922151         1.693203        -3.184225
 H        -1.176466         1.742258        -3.008593
 H        -0.958566        -1.052398        -0.881773
 H         0.080579         0.170606        -1.786472
