19
Iteration:  4438charge 0 multiplicity 1
 O         0.229016         0.190766         1.046008
 C        -0.991193         0.477393         0.286828
 C        -2.322669         0.398072         0.862360
 C        -1.724995         1.746742         0.642691
 C        -1.870418         2.843683        -0.288538
 C        -2.060631         2.778263        -1.622143
 C        -2.179797         1.577104        -2.424455
 O        -2.183268         0.339781        -1.736366
 C        -0.814251         0.160823        -1.174166
 H         0.997984         0.652661         0.550686
 H        -3.263895         0.168903         0.309388
 H        -2.363213         0.324299         1.982042
 H        -1.465445         2.190927         1.659740
 H        -1.522828         3.925349         0.187081
 H        -2.063081         3.728353        -2.365557
 H        -3.152430         1.889662        -2.930477
 H        -1.626096         1.686444        -3.398737
 H        -0.403457        -0.764803        -1.289050
 H        -0.121255         0.836341        -1.814538
