19
Iteration:  1928charge 0 multiplicity 1
 O         0.270851         0.055510         0.934666
 C        -1.004219         0.475065         0.305354
 C        -2.176188         0.590816         1.186429
 C        -1.472342         1.860121         0.608700
 C        -2.202274         2.817386        -0.308464
 C        -2.386668         2.783531        -1.655606
 C        -1.780970         1.717818        -2.495453
 O        -2.119531         0.411324        -1.916334
 C        -1.091587        -0.078626        -1.073741
 H         0.924589         0.256663         0.232238
 H        -3.153767         0.565607         0.752693
 H        -1.994622         0.342591         2.207530
 H        -0.802000         2.318758         1.387696
 H        -2.445045         3.834732         0.091194
 H        -3.222012         3.464141        -2.024276
 H        -2.200717         1.764968        -3.610601
 H        -0.649531         1.949440        -2.398181
 H        -1.293748        -1.111151        -1.015250
 H        -0.031712         0.070815        -1.500224
