19
Iteration:     3
 O         0.223064         0.110213         0.985221
 C        -0.939770         0.490534         0.273514
 C        -2.266067         0.489720         0.958129
 C        -1.520649         1.791223         0.688498
 C        -2.053855         2.880052        -0.221948
 C        -2.293746         2.807954        -1.517355
 C        -2.129501         1.666522        -2.478269
 O        -2.036446         0.378020        -1.914487
 C        -0.845640         0.106223        -1.205335
 H         0.173888        -0.825358         1.085599
 H        -3.103871         0.165925         0.329233
 H        -2.283807         0.154198         1.984827
 H        -1.009509         2.223342         1.549816
 H        -2.376256         3.796589         0.295035
 H        -2.792786         3.726054        -1.937451
 H        -3.016059         1.634286        -3.165490
 H        -1.235333         1.879974        -3.157676
 H        -0.641200        -0.983595        -1.231733
 H         0.081302         0.557613        -1.627161
