19
Iteration:  4839
 O         0.267195         0.098783         1.098787
 C        -0.911840         0.484004         0.291973
 C        -2.324607         0.362408         0.927130
 C        -1.635444         1.727623         0.676189
 C        -1.829065         2.813767        -0.396294
 C        -2.156760         2.845413        -1.689499
 C        -2.222141         1.625552        -2.458639
 O        -2.221612         0.414458        -1.756189
 C        -0.867541         0.220588        -1.149108
 H         0.940834         0.812755         1.190498
 H        -2.912580        -0.035716         0.198669
 H        -2.511814         0.154476         1.904685
 H        -1.508404         2.157389         1.600368
 H        -1.962910         3.845783         0.044105
 H        -2.013404         3.815324        -2.140214
 H        -3.152660         1.650012        -3.122118
 H        -1.492260         1.575701        -3.199665
 H        -0.551909        -0.848284        -1.439865
 H        -0.013260         0.626263        -1.705889
