19
Iteration:  3676
 O         0.017044        -0.092676         1.057310
 C        -0.953107         0.571684         0.256729
 C        -2.260165         0.509620         0.868134
 C        -1.584523         1.864129         0.757004
 C        -1.893262         2.959249        -0.291543
 C        -2.104472         2.787045        -1.636294
 C        -2.485816         1.474040        -2.440143
 O        -1.951936         0.274300        -1.835843
 C        -0.695121         0.338220        -1.193555
 H         0.733392         0.522861         1.184250
 H        -3.154244         0.418530         0.225686
 H        -2.145598         0.003551         1.813917
 H        -1.001387         2.270117         1.725312
 H        -1.689196         4.006286         0.026112
 H        -2.252862         3.693227        -2.317977
 H        -3.506792         1.251457        -2.408145
 H        -1.983811         1.389349        -3.491600
 H        -0.150608        -0.661921        -1.164487
 H         0.009184         1.064193        -1.752735
