19
Iteration:  1365charge 0 multiplicity 1
 O         0.155455         0.200987         1.004322
 C        -0.970292         0.530261         0.279673
 C        -2.295382         0.451159         0.871656
 C        -1.625211         1.740217         0.744951
 C        -1.720145         2.844517        -0.290007
 C        -2.168415         2.890332        -1.578233
 C        -2.308613         1.579528        -2.490466
 O        -2.091678         0.269865        -1.832919
 C        -0.856664         0.083216        -1.121566
 H         0.837128         0.885198         0.616417
 H        -3.153509         0.096021         0.301260
 H        -2.586924         0.318941         1.956113
 H        -1.162948         2.023516         1.657742
 H        -1.499158         3.818851         0.055060
 H        -2.169893         3.871926        -2.204994
 H        -3.350311         1.643155        -2.831973
 H        -1.619793         1.603518        -3.486412
 H        -0.755376        -1.004987        -1.002625
 H        -0.038260         0.695286        -1.565647
