19
Iteration:  1059
 O         0.044144        -0.081135         0.955345
 C        -0.970087         0.525789         0.284375
 C        -2.141544         0.686779         1.248903
 C        -1.280853         1.938664         0.456813
 C        -2.150781         2.838641        -0.283539
 C        -2.561142         2.716919        -1.564054
 C        -1.885474         1.733933        -2.515785
 O        -2.035755         0.400424        -1.927901
 C        -0.910602        -0.088425        -1.168251
 H         0.737799         0.529222         0.876568
 H        -3.204628         0.680711         1.022320
 H        -1.748832         0.472627         2.192453
 H        -0.970402         2.443936         1.399810
 H        -2.486378         3.580440         0.475257
 H        -3.340621         3.382573        -1.946560
 H        -2.393019         1.669798        -3.424149
 H        -0.777813         1.956589        -2.699826
 H        -1.159364        -1.222982        -1.166180
 H         0.196251         0.087050        -1.455536
