19
Iteration:  2686
 O         0.183312         0.072961         0.961739
 C        -0.953496         0.522834         0.271412
 C        -2.089083         0.630101         1.118645
 C        -1.415656         1.948755         0.604060
 C        -2.186800         2.763547        -0.341557
 C        -2.460001         2.770791        -1.630408
 C        -1.791044         1.735360        -2.352627
 O        -2.121615         0.405000        -1.966322
 C        -1.084889        -0.157337        -1.095800
 H         0.868525         0.275781         0.360183
 H        -3.014860         0.361434         0.596574
 H        -1.983233         0.461899         2.228555
 H        -0.742497         2.380887         1.344907
 H        -2.793815         3.553047         0.218272
 H        -3.221851         3.480022        -2.107504
 H        -1.898261         1.730322        -3.423872
 H        -0.709460         1.894419        -2.259455
 H        -1.362005        -1.209591        -0.952584
 H        -0.176672        -0.219539        -1.596040
