19
Iteration:  4087charge 0 multiplicity 1
 O         0.070205        -0.076942         1.118308
 C        -0.858788         0.535911         0.320279
 C        -2.232861         0.598243         0.849216
 C        -1.497779         1.909572         0.813927
 C        -1.929876         2.911913        -0.348563
 C        -2.314102         2.783028        -1.605857
 C        -2.313248         1.560626        -2.466010
 O        -1.995661         0.255800        -1.936452
 C        -0.792652         0.184348        -1.176367
 H         0.813003         0.469575         1.162962
 H        -2.926612         0.424027         0.051964
 H        -2.469911         0.039153         1.732058
 H        -1.073648         2.311807         1.752507
 H        -1.930680         3.999788         0.076683
 H        -2.384483         3.737667        -2.185054
 H        -3.396291         1.679625        -2.637347
 H        -1.879770         1.742257        -3.412933
 H        -0.555242        -0.993612        -1.245287
 H         0.069118         0.833703        -1.616433
