19
Iteration:  4001
 O         0.237554         0.072538         1.040486
 C        -0.938368         0.550379         0.354225
 C        -2.232800         0.456210         0.989610
 C        -1.683500         1.878505         0.741085
 C        -2.042820         2.829470        -0.286470
 C        -2.044659         2.861466        -1.624628
 C        -2.179388         1.658592        -2.508252
 O        -2.136543         0.300055        -1.913522
 C        -0.902264         0.065197        -1.189833
 H         0.985531         0.758115         0.777422
 H        -2.920306         0.163370         0.218159
 H        -2.336187         0.016505         1.965008
 H        -1.056534         2.270963         1.572009
 H        -2.034830         3.948003         0.127418
 H        -2.363270         3.783339        -2.033558
 H        -3.138275         1.639375        -3.087792
 H        -1.357678         1.409792        -3.283790
 H        -0.921210        -1.037612        -1.121434
 H        -0.005041         0.407331        -1.644852
