19
Iteration:   155
 O         0.302243         0.244611         1.103291
 C        -0.842601         0.397115         0.200507
 C        -2.321792         0.478362         0.828366
 C        -1.616381         1.666430         0.685850
 C        -1.959356         2.785077        -0.242970
 C        -2.174658         2.836116        -1.586633
 C        -2.260283         1.639422        -2.526431
 O        -2.180797         0.447548        -1.675388
 C        -0.791783         0.107938        -1.327492
 H         0.068214        -0.310814         1.869573
 H        -3.114875         0.419221         0.090176
 H        -2.421007        -0.077059         1.770196
 H        -1.070359         2.065046         1.584113
 H        -2.187120         3.781487         0.283955
 H        -2.176410         3.897198        -1.954052
 H        -3.184536         1.644205        -3.128437
 H        -1.314484         1.645520        -3.185744
 H        -0.666579        -0.937260        -1.526539
 H        -0.083575         0.798702        -1.794382
