19
Iteration:  3021
 O         0.163071         0.185233         0.944066
 C        -0.958562         0.543292         0.233988
 C        -2.153924         0.541886         1.102605
 C        -1.546017         1.874745         0.668506
 C        -2.058253         2.917129        -0.210978
 C        -2.211782         2.800065        -1.551585
 C        -1.921866         1.602483        -2.446573
 O        -2.121869         0.265123        -2.006588
 C        -1.105452        -0.091712        -1.178110
 H         0.925558         0.723156         0.708871
 H        -3.210958         0.346685         0.830384
 H        -1.822596         0.107041         2.123134
 H        -1.042376         2.287967         1.506330
 H        -2.559527         3.808571         0.330186
 H        -2.501556         3.791580        -2.037387
 H        -2.534108         1.736487        -3.225839
 H        -0.833219         1.647809        -2.704686
 H        -1.181741        -1.192741        -0.956424
 H        -0.247502         0.202073        -1.771669
