19
Iteration:   605
 O         0.181962         0.214735         0.867524
 C        -1.006466         0.555345         0.266332
 C        -2.301609         0.596964         1.053926
 C        -1.486940         1.861733         0.700810
 C        -2.052906         2.784692        -0.199059
 C        -2.165777         2.720870        -1.549474
 C        -2.014495         1.598971        -2.482486
 O        -2.134395         0.303008        -1.911226
 C        -0.866691         0.072607        -1.149950
 H         0.196452        -0.712617         1.021469
 H        -3.149260         0.409108         0.401666
 H        -2.270180         0.037950         2.002345
 H        -0.855249         2.280306         1.550064
 H        -2.391413         3.797781         0.273525
 H        -2.629755         3.621595        -2.050385
 H        -2.986477         1.682339        -2.991475
 H        -1.148631         1.660108        -3.252149
 H        -0.554549        -1.002555        -1.013351
 H        -0.046574         0.575678        -1.702633
