19
Iteration:   162charge 0 multiplicity 1
 O         0.213767         0.259350         1.033727
 C        -0.892212         0.416767         0.176240
 C        -2.283044         0.448185         0.871770
 C        -1.583531         1.729663         0.668940
 C        -1.950001         2.713836        -0.205497
 C        -2.184194         2.826033        -1.576934
 C        -2.177310         1.653174        -2.511310
 O        -2.127597         0.467905        -1.679156
 C        -0.815389         0.112535        -1.274597
 H         0.060771        -0.472524         1.580246
 H        -3.188077         0.325572         0.290864
 H        -2.532563         0.101921         1.858267
 H        -0.966810         2.151369         1.461056
 H        -2.230085         3.648278         0.198015
 H        -2.435432         3.765945        -2.023708
 H        -3.185761         1.575060        -2.913812
 H        -1.394217         1.563049        -3.313004
 H        -0.543138        -0.977567        -1.445982
 H        -0.142755         0.810405        -1.918213
