19
Iteration:   981charge 0 multiplicity 1
 O         0.211362         0.165632         0.974863
 C        -0.977225         0.512506         0.300510
 C        -2.354590         0.447660         0.932998
 C        -1.562279         1.799436         0.734109
 C        -1.945395         2.917340        -0.271035
 C        -2.067396         2.829083        -1.608965
 C        -2.265376         1.588368        -2.493673
 O        -2.094177         0.308808        -1.789906
 C        -0.870405         0.042977        -1.203248
 H         0.808585         0.918588         0.681755
 H        -3.189948         0.091106         0.357857
 H        -2.353245         0.162834         1.999192
 H        -1.072103         2.194483         1.672937
 H        -1.689667         3.870577         0.237307
 H        -2.144208         3.859459        -2.072905
 H        -3.259230         1.475955        -2.805130
 H        -1.589912         1.606853        -3.375300
 H        -0.646684        -1.041058        -1.390211
 H        -0.043296         0.539523        -1.724091
