19
Iteration:  1263charge 0 multiplicity 1
 O         0.038097        -0.133831         1.185636
 C        -0.870712         0.507718         0.301648
 C        -2.223033         0.712912         0.885754
 C        -1.306379         1.905894         0.609978
 C        -1.979856         2.933112        -0.292711
 C        -2.417475         2.717243        -1.550976
 C        -2.268381         1.546904        -2.453241
 O        -2.002862         0.327123        -1.927463
 C        -0.787107         0.203662        -1.171497
 H         0.785258        -0.290166         0.653764
 H        -3.072277         0.683221         0.243951
 H        -2.406949         0.319594         1.876309
 H        -0.854413         2.487539         1.456407
 H        -2.296917         3.917524         0.174238
 H        -2.940045         3.379186        -2.156337
 H        -3.305403         1.389078        -2.925857
 H        -1.569573         1.819544        -3.304614
 H        -0.577377        -0.825366        -1.186789
 H         0.098034         0.612753        -1.676145
