19
Iteration:   587charge 0 multiplicity 1
 O         0.345803         0.152138         0.989900
 C        -0.908397         0.524965         0.341019
 C        -2.251397         0.482775         1.020429
 C        -1.596554         1.825461         0.747083
 C        -2.088886         2.833261        -0.238019
 C        -2.037558         2.836847        -1.641616
 C        -2.190649         1.611676        -2.568737
 O        -2.135823         0.345351        -1.915609
 C        -0.962259         0.099312        -1.188562
 H         0.128827        -0.473898         1.656154
 H        -3.160852         0.307094         0.429609
 H        -2.363780         0.281602         2.077922
 H        -1.194972         2.308547         1.645042
 H        -2.436870         3.733723         0.181527
 H        -2.296548         3.788413        -2.182111
 H        -3.166366         1.407548        -3.125943
 H        -1.414022         1.535037        -3.279820
 H        -0.798593        -0.958321        -1.408464
 H        -0.032517         0.466021        -1.619875
