19
Iteration:  3801
 O         0.233190         0.212517         0.908566
 C        -1.048024         0.471448         0.291358
 C        -2.234087         0.464850         1.112399
 C        -1.565785         1.825695         0.565626
 C        -2.059259         2.829840        -0.281888
 C        -2.249233         2.746578        -1.573294
 C        -1.871231         1.674849        -2.517367
 O        -2.144652         0.406062        -1.829486
 C        -1.049422        -0.027404        -1.105534
 H         0.929358         0.705340         0.535064
 H        -3.100166         0.032113         0.596506
 H        -2.225766         0.407130         2.204708
 H        -1.144240         2.222014         1.412342
 H        -2.245079         3.839216         0.197327
 H        -2.409752         3.666149        -2.059392
 H        -2.411995         1.548702        -3.451962
 H        -0.787720         1.746737        -2.779067
 H        -0.915930        -1.163213        -1.065350
 H        -0.004088         0.191590        -1.526953
