19
Iteration:  3100charge 0 multiplicity 1
 O         0.132842        -0.054099         0.929708
 C        -0.952366         0.533484         0.183358
 C        -2.078594         0.734889         1.189756
 C        -1.433770         1.989131         0.624019
 C        -2.298054         2.853400        -0.235209
 C        -2.402897         2.749829        -1.574982
 C        -1.768182         1.659455        -2.367604
 O        -2.052064         0.389761        -2.002593
 C        -1.101859        -0.118535        -1.168639
 H         1.105360         0.257835         0.746987
 H        -3.066522         0.336735         0.857110
 H        -1.903450         0.454438         2.205217
 H        -0.605445         2.466557         1.249466
 H        -3.015762         3.557088         0.212415
 H        -3.172985         3.309557        -2.006244
 H        -2.118817         1.812074        -3.304082
 H        -0.628888         1.758022        -2.531333
 H        -1.215879        -1.229848        -1.127694
 H        -0.062169         0.009506        -1.725832
