19
Iteration:  1550charge 0 multiplicity 1
 O         0.219398         0.128338         0.881398
 C        -0.964201         0.512472         0.296692
 C        -2.148480         0.543704         1.184431
 C        -1.550654         1.820817         0.673657
 C        -2.195112         2.842865        -0.341227
 C        -2.163301         2.854976        -1.654330
 C        -1.877426         1.674758        -2.493965
 O        -2.131846         0.446543        -1.894592
 C        -1.106440        -0.158954        -1.042970
 H         0.953763         0.569964         0.406443
 H        -3.009184        -0.016036         0.795769
 H        -1.940303         0.076492         2.131106
 H        -1.004145         2.356581         1.451120
 H        -2.609600         3.742048         0.143553
 H        -2.618621         3.793638        -2.123601
 H        -2.552612         1.828527        -3.453419
 H        -0.821204         1.659983        -2.844163
 H        -1.411676        -1.175789        -0.948396
 H        -0.137265        -0.194558        -1.591361
