19
Iteration:  4090charge 0 multiplicity 1
 O         0.060532        -0.090343         1.127526
 C        -0.876862         0.527378         0.303590
 C        -2.237287         0.611860         0.859245
 C        -1.494629         1.932058         0.819471
 C        -1.901907         2.923591        -0.328275
 C        -2.336729         2.793703        -1.598968
 C        -2.309356         1.549342        -2.470403
 O        -1.983696         0.258433        -1.944238
 C        -0.770133         0.175322        -1.195858
 H         0.907189         0.510134         1.131429
 H        -2.983717         0.415518         0.080646
 H        -2.446121         0.046533         1.764611
 H        -1.093119         2.358824         1.705856
 H        -1.978895         3.901670         0.060290
 H        -2.475298         3.633715        -2.138251
 H        -3.400382         1.550457        -2.691620
 H        -1.836837         1.775577        -3.387055
 H        -0.588112        -0.890665        -1.249206
 H        -0.023393         0.760295        -1.646230
