19
Iteration:   518
 O         0.284143         0.034117         1.008594
 C        -0.911603         0.525535         0.305354
 C        -2.296228         0.599702         0.870408
 C        -1.548265         1.848871         0.727593
 C        -2.019101         2.840314        -0.277168
 C        -2.094615         2.786904        -1.592987
 C        -2.315057         1.507015        -2.424421
 O        -2.089396         0.263672        -1.870489
 C        -0.832084         0.223641        -1.209576
 H         0.126046         0.109999         1.916770
 H        -3.080434         0.476006         0.114915
 H        -2.633495         0.297218         1.868467
 H        -1.294043         2.406005         1.655973
 H        -2.069938         3.882821         0.178323
 H        -2.196781         3.756440        -2.119167
 H        -3.322249         1.517991        -2.915941
 H        -1.652872         1.655268        -3.247234
 H        -0.428710        -0.748694        -1.448049
 H        -0.164830         0.810295        -1.780325
