19
Iteration:  3871
 O         0.258068         0.116738         0.892935
 C        -1.061416         0.533810         0.324841
 C        -2.190342         0.591051         1.276798
 C        -1.496801         1.921439         0.662281
 C        -2.215041         2.831704        -0.230251
 C        -2.353724         2.747040        -1.615240
 C        -1.670700         1.744977        -2.498777
 O        -2.108739         0.344549        -2.042966
 C        -1.130676        -0.183146        -1.152959
 H         0.803479         0.529839         0.284821
 H        -3.247959         0.456843         1.035954
 H        -1.848518         0.387822         2.280345
 H        -0.755337         2.448886         1.396377
 H        -2.831338         3.676817         0.258116
 H        -3.069664         3.490452        -2.040536
 H        -1.924420         1.898770        -3.612216
 H        -0.523800         1.800024        -2.362352
 H        -1.270298        -1.225078        -1.124250
 H        -0.116045        -0.167182        -1.697875
