19
Iteration:  4450charge 0 multiplicity 1
 O         0.192099         0.206531         1.107319
 C        -0.927508         0.516289         0.257336
 C        -2.368791         0.414640         0.845276
 C        -1.651567         1.757463         0.692375
 C        -1.786978         2.823590        -0.293758
 C        -2.089298         2.808223        -1.599307
 C        -2.279697         1.598304        -2.512308
 O        -2.165132         0.302572        -1.750614
 C        -0.836624         0.189886        -1.202641
 H         0.982793         0.689568         0.689907
 H        -3.189589         0.137421         0.192442
 H        -2.371673        -0.062727         1.833876
 H        -1.237249         2.090155         1.689950
 H        -1.724161         3.836924         0.208449
 H        -2.010900         3.856172        -2.100121
 H        -3.274255         1.429339        -2.971912
 H        -1.414053         1.532288        -3.217510
 H        -0.658860        -0.831862        -1.255917
 H        -0.067587         0.796076        -1.786394
