19
Iteration:    15
 O         0.262321        -0.002480         1.038348
 C        -0.907669         0.444627         0.294457
 C        -2.346286         0.516809         0.880582
 C        -1.480533         1.861114         0.561029
 C        -2.010432         3.028198        -0.206364
 C        -2.359957         2.882290        -1.552049
 C        -2.178280         1.702237        -2.465546
 O        -1.999564         0.366619        -1.864591
 C        -0.752282         0.056674        -1.132103
 H         0.326818        -1.011112         0.877143
 H        -2.989513        -0.006511         0.145933
 H        -2.452660         0.296640         1.936205
 H        -1.023864         2.050105         1.561567
 H        -2.819179         3.575231         0.334426
 H        -3.400602         3.321926        -1.844045
 H        -3.202818         1.585866        -2.959917
 H        -1.374178         1.839645        -3.299006
 H        -0.756154        -1.055544        -1.278213
 H         0.115614         0.607731        -1.587526
