19
Iteration:   285charge 0 multiplicity 1
 O         0.275644        -0.054951         0.912083
 C        -0.860969         0.504167         0.341488
 C        -2.168536         0.493955         0.927086
 C        -1.428979         1.931435         0.550942
 C        -2.175760         2.879522        -0.281156
 C        -2.528237         2.816846        -1.593716
 C        -1.881159         1.804771        -2.405054
 O        -2.084544         0.424421        -1.904461
 C        -1.015874        -0.090919        -1.076887
 H         0.533745         0.551065         1.631774
 H        -3.105223         0.186757         0.443711
 H        -2.304005         0.372193         2.008490
 H        -0.940448         2.388666         1.464001
 H        -2.728100         3.684879         0.272457
 H        -3.475362         3.317158        -1.961630
 H        -2.045481         1.787276        -3.469136
 H        -0.804902         2.039913        -2.321578
 H        -1.276463        -1.154908        -0.985066
 H        -0.006001        -0.240347        -1.544751
