19
Iteration:   490
 O         0.068887        -0.044724         0.884196
 C        -1.012831         0.610226         0.264580
 C        -2.218472         0.538160         1.061558
 C        -1.543209         1.971020         0.789244
 C        -1.881297         2.972420        -0.289931
 C        -2.255483         2.694044        -1.527731
 C        -2.331059         1.505935        -2.461776
 O        -1.894528         0.252672        -2.033932
 C        -0.787280         0.203081        -1.129904
 H         0.031526         0.143601         1.807485
 H        -3.204470         0.399011         0.649050
 H        -2.115080         0.266723         2.118118
 H        -1.024690         2.402822         1.681300
 H        -1.889760         4.006018        -0.033799
 H        -2.752866         3.583056        -2.006278
 H        -3.325859         1.203057        -2.895181
 H        -1.525952         1.800010        -3.263695
 H        -0.565121        -0.894262        -1.309047
 H         0.129695         0.738185        -1.611513
