19
Iteration:  2991
 O         0.275025         0.096434         0.891351
 C        -0.916886         0.497906         0.380709
 C        -2.315833         0.566568         1.046981
 C        -1.572567         1.837039         0.717428
 C        -1.975999         2.811202        -0.317676
 C        -2.252832         2.800846        -1.607568
 C        -2.049817         1.605582        -2.523892
 O        -2.094431         0.371108        -1.864757
 C        -1.016143         0.016318        -1.109717
 H         1.020332         0.782820         0.912466
 H        -3.117037         0.470523         0.297426
 H        -2.541149         0.185386         2.104356
 H        -1.142459         2.295618         1.629508
 H        -2.272312         3.745467         0.181423
 H        -2.572469         3.740029        -2.104404
 H        -2.842199         1.545582        -3.397653
 H        -1.077163         1.723070        -3.079089
 H        -0.874867        -1.078618        -1.135177
 H        -0.082794         0.400672        -1.644128
