19
Iteration:  1929charge 0 multiplicity 1
 O         0.277651         0.057624         0.933965
 C        -1.007961         0.480958         0.305794
 C        -2.184869         0.585870         1.191557
 C        -1.470223         1.861926         0.607346
 C        -2.188622         2.814896        -0.308004
 C        -2.389814         2.789214        -1.660225
 C        -1.781893         1.725905        -2.494419
 O        -2.117266         0.411208        -1.917584
 C        -1.096419        -0.090394        -1.076900
 H         0.909854         0.276650         0.259527
 H        -3.135139         0.567637         0.753893
 H        -2.002070         0.352016         2.216497
 H        -0.824798         2.292549         1.408491
 H        -2.473336         3.805187         0.071327
 H        -3.214376         3.444369        -2.022929
 H        -2.224505         1.747072        -3.595771
 H        -0.660068         1.953286        -2.405478
 H        -1.301847        -1.135166        -1.009314
 H        -0.019999         0.094269        -1.497778
