19
Iteration:  2202charge 0 multiplicity 1
 O         0.187952        -0.006041         0.947043
 C        -0.995421         0.533911         0.308533
 C        -2.308709         0.538441         0.968642
 C        -1.502821         1.907144         0.646076
 C        -1.974300         2.915781        -0.305235
 C        -2.279291         2.851340        -1.610428
 C        -2.135629         1.558565        -2.463740
 O        -2.013606         0.295565        -1.806855
 C        -0.896190         0.052132        -1.115919
 H         0.869452         0.718163         0.790102
 H        -3.163583         0.486116         0.284604
 H        -2.427003         0.186837         2.042779
 H        -1.020637         2.352928         1.534470
 H        -2.185709         3.896051         0.105116
 H        -2.755405         3.742240        -1.926698
 H        -2.855844         1.548211        -3.172809
 H        -1.243444         1.716792        -3.046751
 H        -0.747223        -1.017698        -1.058302
 H         0.034491         0.363052        -1.704181
