19
Iteration:  1329charge 0 multiplicity 1
 O         0.172864         0.037604         1.030255
 C        -0.922645         0.527815         0.282267
 C        -2.308921         0.550664         0.881922
 C        -1.612089         1.873347         0.788971
 C        -1.901515         2.927118        -0.285633
 C        -1.959241         2.783276        -1.608018
 C        -2.408093         1.525241        -2.449253
 O        -2.104443         0.200359        -1.900230
 C        -0.807010         0.225897        -1.199027
 H         0.878475         0.741177         1.296165
 H        -3.072869         0.431112         0.104280
 H        -2.373560         0.222634         1.896513
 H        -1.298629         2.113224         1.840074
 H        -1.860794         3.949552         0.155389
 H        -1.903600         3.690792        -2.116915
 H        -3.572790         1.517891        -2.349303
 H        -2.200479         1.425597        -3.579961
 H        -0.406325        -0.755948        -1.279695
 H        -0.062574         0.807255        -1.757862
