19
Iteration:  3730charge 0 multiplicity 1
 O        -0.024370        -0.056126         1.111125
 C        -0.978215         0.495726         0.320545
 C        -2.314782         0.606179         0.941610
 C        -1.352670         1.914534         0.684413
 C        -1.811088         2.948535        -0.330039
 C        -2.519424         2.751464        -1.552793
 C        -2.336378         1.590818        -2.480670
 O        -1.909386         0.280143        -1.929762
 C        -0.626181         0.129431        -1.188191
 H         0.810046         0.300959         0.768293
 H        -3.154269         0.523426         0.241356
 H        -2.506574         0.108414         1.896650
 H        -0.833290         2.403246         1.659833
 H        -1.978520         3.950807         0.151154
 H        -2.911038         3.758366        -2.051245
 H        -3.349597         1.303841        -2.809163
 H        -1.802913         1.741517        -3.382447
 H        -0.095421        -0.827814        -1.304530
 H         0.212053         0.823904        -1.581258
