19
Iteration:  2941
 O         0.058796        -0.009905         1.239269
 C        -0.874205         0.534298         0.261552
 C        -2.208443         0.510003         0.866484
 C        -1.485897         1.902854         0.674570
 C        -1.929239         2.860333        -0.301015
 C        -2.262883         2.796461        -1.643484
 C        -2.323057         1.563487        -2.451975
 O        -2.115902         0.311096        -1.866281
 C        -0.760379         0.203164        -1.238270
 H         0.950840         0.248019         0.954129
 H        -3.138228         0.278204         0.436121
 H        -1.968095         0.178932         1.804561
 H        -1.030179         2.272103         1.645300
 H        -1.956413         3.883648         0.047020
 H        -2.408367         3.720039        -2.126882
 H        -3.192585         1.538213        -3.000807
 H        -1.641451         1.669672        -3.337126
 H        -0.310036        -0.820182        -1.226191
 H        -0.084728         0.680519        -1.944091
