19
Iteration:  3391charge 0 multiplicity 1
 O         0.246360         0.075562         0.970576
 C        -0.874485         0.566730         0.322156
 C        -2.292402         0.505137         0.938431
 C        -1.549156         1.882190         0.780807
 C        -2.007830         2.869327        -0.173733
 C        -2.200028         2.781013        -1.565420
 C        -2.052799         1.604043        -2.587217
 O        -2.124807         0.307803        -1.936412
 C        -1.026961         0.033030        -1.150230
 H         0.957599         0.726751         0.759626
 H        -3.132990         0.382221         0.243224
 H        -2.404326         0.271464         1.978604
 H        -1.071447         2.417770         1.636611
 H        -2.233728         3.854218         0.243432
 H        -2.696335         3.625811        -2.040174
 H        -2.943162         1.614048        -3.237080
 H        -1.069488         1.665573        -3.098342
 H        -0.999328        -1.043540        -0.920934
 H        -0.120620         0.369192        -1.664535
