19
Iteration:  4997charge 0 multiplicity 1
 O         0.213369         0.056129         0.960031
 C        -0.925218         0.529843         0.271060
 C        -2.253964         0.470414         1.038302
 C        -1.560060         1.875759         0.710673
 C        -2.101746         2.873817        -0.268282
 C        -2.327598         2.772810        -1.593771
 C        -1.949248         1.667258        -2.472707
 O        -2.035946         0.402727        -1.914877
 C        -1.005414        -0.000004        -1.117157
 H         0.922074         0.387719         0.447951
 H        -3.202672         0.320472         0.441791
 H        -2.264405         0.046481         2.103596
 H        -1.028411         2.416037         1.543530
 H        -2.263887         3.861328         0.112289
 H        -2.744101         3.670721        -2.105061
 H        -2.669701         1.608983        -3.268922
 H        -0.851332         1.913582        -2.870910
 H        -1.058277        -1.070125        -1.010005
 H        -0.014940         0.144536        -1.707874
