19
Iteration:  1177charge 0 multiplicity 1
 O         0.258851         0.165290         0.857949
 C        -0.934091         0.540887         0.265647
 C        -2.165889         0.480046         1.164826
 C        -1.564013         1.832244         0.636642
 C        -2.243936         2.796638        -0.287189
 C        -2.196265         2.752560        -1.664789
 C        -1.800108         1.671498        -2.564833
 O        -2.131150         0.498993        -1.800158
 C        -1.187387        -0.157713        -1.059289
 H         0.834124         0.974584         0.743522
 H        -3.067847         0.053675         0.811397
 H        -1.970686         0.428429         2.225344
 H        -0.848979         2.392839         1.335007
 H        -2.463120         3.761249         0.284815
 H        -2.401554         3.662177        -2.132525
 H        -2.371315         1.719787        -3.487729
 H        -0.726872         1.639285        -2.812925
 H        -1.500786        -1.188975        -0.858955
 H        -0.245464        -0.142240        -1.703414
