19
Iteration:  2532charge 0 multiplicity 1
 O         0.079993        -0.020946         1.153993
 C        -0.881313         0.542149         0.349228
 C        -2.185713         0.522027         0.934158
 C        -1.510355         1.934932         0.693908
 C        -1.923903         2.908685        -0.326597
 C        -2.240619         2.756634        -1.627563
 C        -2.290868         1.517480        -2.447367
 O        -2.079361         0.267131        -1.966300
 C        -0.840135         0.258322        -1.168015
 H         0.970843         0.052396         0.730113
 H        -3.002335         0.066311         0.449147
 H        -2.311139         0.323911         1.948074
 H        -1.113394         2.274341         1.569389
 H        -1.693202         3.931729        -0.106314
 H        -2.533551         3.659070        -2.137140
 H        -3.305381         1.481710        -2.786527
 H        -1.764611         1.663099        -3.417273
 H        -0.493271        -0.770491        -1.224053
 H        -0.106437         1.010519        -1.690698
