19
Iteration:  3076charge 0 multiplicity 1
 O         0.208656        -0.052722         0.903389
 C        -0.900251         0.496861         0.346324
 C        -2.149759         0.656907         1.238364
 C        -1.409776         1.898964         0.593120
 C        -2.243164         2.768184        -0.342180
 C        -2.469731         2.761430        -1.649798
 C        -1.765582         1.822106        -2.499717
 O        -2.108998         0.405020        -1.941837
 C        -1.068276        -0.061190        -1.074591
 H         0.952758         0.157863         0.379406
 H        -3.138367         0.321308         0.763322
 H        -2.164781         0.496332         2.386780
 H        -0.893601         2.535871         1.281465
 H        -2.704275         3.746186         0.124122
 H        -3.269376         3.450070        -2.013338
 H        -1.957772         1.909031        -3.540728
 H        -0.637529         1.939582        -2.360835
 H        -1.401027        -1.148689        -0.809575
 H        -0.118035        -0.243874        -1.714422
