19
Iteration:  2688
 O         0.175038         0.061498         0.957384
 C        -0.949598         0.532426         0.259964
 C        -2.082345         0.634607         1.103363
 C        -1.412760         1.951997         0.610700
 C        -2.199562         2.777323        -0.320930
 C        -2.473748         2.758819        -1.629980
 C        -1.773258         1.724728        -2.352580
 O        -2.138509         0.411414        -1.968551
 C        -1.071424        -0.165039        -1.077171
 H         0.921198         0.339174         0.360110
 H        -3.054933         0.385946         0.550539
 H        -1.989951         0.440542         2.247924
 H        -0.662541         2.416249         1.392120
 H        -2.882321         3.549542         0.172603
 H        -3.164961         3.509732        -2.126234
 H        -1.956423         1.755997        -3.439653
 H        -0.580525         1.921508        -2.319456
 H        -1.372476        -1.250832        -0.894236
 H        -0.109420        -0.288704        -1.664189
