19
Iteration:  3443
 O         0.213199         0.116490         0.940634
 C        -1.002551         0.450247         0.216549
 C        -2.130056         0.525491         1.247828
 C        -1.536672         1.875441         0.536681
 C        -2.302930         2.886142        -0.248785
 C        -2.231079         2.843054        -1.572687
 C        -1.783829         1.709930        -2.444215
 O        -2.105575         0.453165        -1.936743
 C        -1.073697        -0.214394        -1.147267
 H         0.901975         0.537980         0.475107
 H        -3.154464         0.216837         0.950244
 H        -1.719127         0.228159         2.215940
 H        -0.772243         2.414845         1.020521
 H        -2.970533         3.668248         0.196911
 H        -2.592756         3.654448        -2.191840
 H        -2.356258         1.849095        -3.298561
 H        -0.719774         1.719067        -2.666194
 H        -1.355155        -1.249454        -0.979169
 H        -0.073355        -0.139948        -1.619764
