19
Iteration:  2672charge 0 multiplicity 1
 O         0.256367         0.120017         0.978607
 C        -0.959494         0.440223         0.288152
 C        -2.187608         0.648041         1.230822
 C        -1.442824         1.821144         0.502645
 C        -2.193044         2.876103        -0.250154
 C        -2.465996         2.820103        -1.621376
 C        -1.754107         1.696097        -2.478670
 O        -2.091584         0.366714        -1.971651
 C        -1.111447        -0.126078        -1.123538
 H         1.063952        -0.042892         0.359711
 H        -3.162521         0.376461         0.968826
 H        -1.984341         0.503051         2.223205
 H        -0.992722         2.383752         1.228920
 H        -2.535955         3.731956         0.311507
 H        -3.225073         3.473596        -2.000948
 H        -2.036338         1.812431        -3.541291
 H        -0.759058         1.852809        -2.366096
 H        -1.248123        -1.171627        -1.080324
 H        -0.198843         0.107721        -1.569642
