19
Iteration:  4077charge 0 multiplicity 1
 O         0.133414        -0.049533         1.107911
 C        -0.875189         0.594209         0.343002
 C        -2.261478         0.506753         0.823909
 C        -1.522850         1.848734         0.678717
 C        -1.987582         2.890857        -0.263564
 C        -2.122854         2.780047        -1.642238
 C        -2.391238         1.591585        -2.468982
 O        -2.048714         0.293251        -1.898887
 C        -0.806559         0.212013        -1.119000
 H         0.847536         0.500885         1.259806
 H        -2.990883         0.450824         0.043813
 H        -2.502018         0.150762         1.804590
 H        -1.189666         2.218278         1.644779
 H        -1.772300         3.987604        -0.006798
 H        -2.257090         3.681951        -2.194068
 H        -3.448091         1.398215        -2.748389
 H        -1.876982         1.646489        -3.358632
 H        -0.368851        -0.876634        -1.136152
 H         0.001576         0.764406        -1.646611
