19
Iteration:   380charge 0 multiplicity 1
 O         0.358050         0.244621         0.979438
 C        -0.956952         0.494787         0.357221
 C        -2.325763         0.523878         1.076827
 C        -1.578928         1.738120         0.705620
 C        -2.122865         2.801465        -0.223804
 C        -2.186747         2.898963        -1.604612
 C        -2.034389         1.652218        -2.568380
 O        -2.077516         0.343895        -1.965995
 C        -1.015215        -0.029724        -1.120250
 H         0.932857        -0.068495         0.189206
 H        -3.089159         0.105594         0.423152
 H        -2.550129         0.246849         2.089089
 H        -1.008410         2.176147         1.604256
 H        -2.232668         3.785734         0.279338
 H        -2.560348         3.912773        -2.020810
 H        -2.891444         1.654011        -3.303425
 H        -1.157639         1.816594        -3.164274
 H        -1.108405        -1.153203        -1.030728
 H         0.016100         0.078627        -1.525569
