19
Iteration:   493charge 0 multiplicity 1
 O         0.081897        -0.048225         0.891419
 C        -1.008623         0.646279         0.264143
 C        -2.205549         0.516491         1.032005
 C        -1.544878         1.968399         0.818883
 C        -1.894476         2.992144        -0.285210
 C        -2.224769         2.704207        -1.537400
 C        -2.334351         1.510889        -2.498550
 O        -1.921798         0.232361        -2.022794
 C        -0.789324         0.187449        -1.114209
 H         0.048730         0.112829         1.838834
 H        -3.201046         0.350455         0.593193
 H        -2.148137         0.243581         2.101009
 H        -1.034783         2.380985         1.639271
 H        -1.902066         4.028869         0.029050
 H        -2.733442         3.487079        -2.025243
 H        -3.317030         1.367199        -2.902331
 H        -1.659930         1.800232        -3.281215
 H        -0.422551        -0.852760        -1.221495
 H         0.024428         0.738657        -1.611755
