19
Iteration:  2173
 O         0.164059         0.045776         1.199868
 C        -0.899243         0.498846         0.343269
 C        -2.274912         0.459876         0.917610
 C        -1.500764         1.860854         0.612001
 C        -1.875881         2.914409        -0.328641
 C        -2.260033         2.777942        -1.603618
 C        -2.252134         1.553510        -2.534361
 O        -2.150100         0.326921        -1.795804
 C        -0.861985         0.191749        -1.235861
 H         1.077836         0.297415         0.837267
 H        -2.957037         0.256558         0.051702
 H        -2.621684         0.143427         1.943121
 H        -1.029373         2.146844         1.578500
 H        -1.596141         3.977360        -0.042441
 H        -2.499113         3.744878        -2.063647
 H        -3.239868         1.591170        -3.173559
 H        -1.273137         1.714645        -3.151776
 H        -0.600724        -0.869561        -1.413031
 H        -0.204625         0.862842        -1.837619
