19
Iteration:  2460
 O         0.102071        -0.004751         1.168458
 C        -0.838007         0.603659         0.270639
 C        -2.190370         0.502909         0.893596
 C        -1.559076         1.895645         0.707739
 C        -1.884813         2.940094        -0.324794
 C        -2.281890         2.828580        -1.596821
 C        -2.345058         1.650883        -2.439182
 O        -2.033411         0.210253        -1.887136
 C        -0.809641         0.077396        -1.265561
 H         0.740721         0.670217         1.578585
 H        -3.011780         0.139298         0.269598
 H        -2.390860         0.191097         1.866848
 H        -1.128151         2.361682         1.634114
 H        -1.753714         3.928543         0.026994
 H        -2.673589         3.659317        -2.206376
 H        -3.350219         1.409004        -2.900706
 H        -1.790150         1.724313        -3.472900
 H        -0.677478        -1.043969        -1.146659
 H         0.031276         0.596574        -1.868965
