19
Iteration:  4508
 O         0.034386        -0.134013         0.992233
 C        -1.001718         0.473193         0.320007
 C        -2.241663         0.651785         1.036769
 C        -1.424342         1.919368         0.690239
 C        -2.017262         2.968555        -0.310066
 C        -2.343840         2.717928        -1.553747
 C        -2.202377         1.589414        -2.462595
 O        -1.919131         0.289270        -1.940177
 C        -0.768792         0.176671        -1.179884
 H         0.749377         0.496481         1.063211
 H        -3.159740         0.678749         0.474353
 H        -2.298258         0.295413         2.045955
 H        -0.925121         2.438851         1.478464
 H        -2.137793         3.914518        -0.135149
 H        -2.702649         3.563979        -2.043243
 H        -3.245115         1.492031        -2.907857
 H        -1.699153         1.883110        -3.456123
 H        -0.412284        -0.921466        -1.144704
 H         0.173166         0.618784        -1.471648
