19
Iteration:  2534
 O         0.081634        -0.022499         1.159995
 C        -0.865054         0.547259         0.338753
 C        -2.178683         0.528235         0.942261
 C        -1.516244         1.927707         0.680852
 C        -1.937041         2.904557        -0.323472
 C        -2.239678         2.762166        -1.625731
 C        -2.294302         1.527921        -2.446969
 O        -2.089937         0.272866        -1.973018
 C        -0.827404         0.245279        -1.161294
 H         0.938531         0.039062         0.797253
 H        -2.944453         0.060831         0.313694
 H        -2.283758         0.331212         1.958670
 H        -1.127479         2.374801         1.604506
 H        -1.685813         3.907374        -0.049712
 H        -2.514704         3.657557        -2.214855
 H        -3.317550         1.448783        -2.794344
 H        -1.772056         1.658960        -3.337719
 H        -0.542362        -0.800398        -1.264837
 H        -0.133816         0.913535        -1.626599
