19
Iteration:   202charge 0 multiplicity 1
 O         0.295070        -0.039833         0.987777
 C        -0.899460         0.560001         0.386231
 C        -2.221604         0.574597         1.135992
 C        -1.670163         1.893666         0.810861
 C        -2.067861         2.915793        -0.217773
 C        -2.390138         2.837334        -1.582960
 C        -2.083377         1.677176        -2.529613
 O        -2.003602         0.253817        -2.098910
 C        -0.911751         0.055469        -1.234475
 H         0.620761        -0.744973         0.304592
 H        -3.065453         0.274100         0.491086
 H        -2.248627         0.528676         2.231556
 H        -1.231739         2.324264         1.672542
 H        -1.984336         3.919731         0.179778
 H        -2.537361         3.811578        -1.995366
 H        -3.005109         1.656234        -3.180934
 H        -1.200273         1.998862        -3.154385
 H        -0.823797        -1.039780        -1.231891
 H        -0.066919         0.595546        -1.534737
