19
Iteration:  2137
 O         0.089104        -0.054525         1.102381
 C        -0.933149         0.568736         0.285353
 C        -2.255762         0.560739         1.022825
 C        -1.579992         1.904915         0.648694
 C        -1.976163         2.886623        -0.292323
 C        -2.058435         2.771475        -1.647478
 C        -2.436980         1.543350        -2.418142
 O        -1.988006         0.329412        -1.911054
 C        -0.751275         0.146563        -1.257521
 H         0.878555         0.565348         1.225482
 H        -3.128192         0.345759         0.400685
 H        -2.332723         0.338414         2.105811
 H        -1.040426         2.410507         1.428041
 H        -1.754258         3.840150         0.138250
 H        -2.199377         3.652469        -2.192981
 H        -3.494567         1.294585        -2.524069
 H        -2.121727         1.639641        -3.577783
 H        -0.537250        -0.887380        -1.383876
 H         0.198973         0.726562        -1.551944
