19
Iteration:   473charge 0 multiplicity 1
 O         0.139270        -0.054963         0.938151
 C        -1.054747         0.499703         0.298196
 C        -2.337060         0.756264         1.116902
 C        -1.412732         1.846546         0.694094
 C        -1.938866         2.859463        -0.306089
 C        -2.455761         2.727988        -1.503637
 C        -2.293646         1.588546        -2.466353
 O        -1.841035         0.277781        -2.058824
 C        -0.728015         0.140849        -1.174886
 H         0.213635         0.206461         1.827978
 H        -3.340611         0.568602         0.699530
 H        -2.268305         0.423324         2.164386
 H        -0.871187         2.345479         1.457288
 H        -1.850464         3.846886         0.188300
 H        -2.561090         3.553144        -2.153100
 H        -3.282513         1.492209        -2.899151
 H        -1.733781         1.988307        -3.311289
 H        -0.302082        -0.859733        -1.165856
 H         0.065799         0.747493        -1.563261
