19
Iteration:  2053
 O         0.075745        -0.079269         1.211904
 C        -0.890639         0.517201         0.255945
 C        -2.167692         0.535498         0.929343
 C        -1.455004         1.861546         0.604790
 C        -1.954836         2.974649        -0.353690
 C        -2.292740         2.835446        -1.658991
 C        -2.288103         1.574666        -2.430040
 O        -2.051162         0.322145        -1.839858
 C        -0.784887         0.167708        -1.220582
 H         0.921818         0.228461         0.887455
 H        -3.087720         0.074454         0.428966
 H        -2.039173         0.265550         2.019825
 H        -1.234618         2.352652         1.543176
 H        -2.465558         3.809122         0.120561
 H        -2.705883         3.568907        -2.329461
 H        -3.379275         1.620824        -2.764867
 H        -1.543798         1.842877        -3.283399
 H        -0.733847        -0.952567        -1.159145
 H         0.070576         0.619246        -1.706545
