19
Iteration:  1051
 O         0.083320        -0.048708         0.962562
 C        -1.031880         0.464411         0.231407
 C        -2.168189         0.762085         1.182786
 C        -1.276551         1.869712         0.503465
 C        -2.119439         2.766401        -0.280761
 C        -2.532858         2.709597        -1.582668
 C        -1.921848         1.709095        -2.504463
 O        -2.002392         0.438729        -1.891428
 C        -0.949554        -0.021583        -1.120702
 H         0.891903         0.454786         0.877547
 H        -3.126957         0.470557         0.802016
 H        -1.995515         0.546384         2.260749
 H        -0.780592         2.397796         1.286992
 H        -2.445257         3.566554         0.339350
 H        -3.297943         3.427847        -1.772637
 H        -2.526984         1.617728        -3.456144
 H        -0.890283         1.969111        -2.733789
 H        -0.937260        -1.122619        -1.116683
 H         0.000074         0.232272        -1.556441
