19
Iteration:   576
 O         0.347472         0.124997         1.034763
 C        -0.868652         0.486075         0.367754
 C        -2.218854         0.439383         1.032551
 C        -1.681988         1.792629         0.650905
 C        -2.030108         2.905165        -0.306472
 C        -2.153015         2.852816        -1.643056
 C        -2.201385         1.598133        -2.616754
 O        -2.168988         0.405549        -1.896391
 C        -0.898129         0.076835        -1.136211
 H         0.098578        -0.331727         1.896031
 H        -2.917402        -0.142080         0.428931
 H        -2.166596         0.123969         2.067166
 H        -1.363581         2.221382         1.614484
 H        -1.941720         3.823975         0.210079
 H        -2.016212         3.833715        -2.161186
 H        -3.247609         1.756624        -3.063162
 H        -1.520255         1.714437        -3.442987
 H        -0.809624        -1.005381        -1.039987
 H        -0.155543         0.629957        -1.688283
