19
Iteration:  1115
 O         0.224077         0.204354         0.818151
 C        -1.061926         0.531884         0.249175
 C        -2.210756         0.620976         1.176639
 C        -1.440600         1.911094         0.681041
 C        -2.103045         2.845499        -0.222114
 C        -2.369410         2.726208        -1.583332
 C        -1.732694         1.694847        -2.457508
 O        -2.042375         0.384164        -1.945335
 C        -1.185738        -0.172902        -1.063896
 H         0.807449         0.008372         0.019180
 H        -3.141905         0.442881         0.677772
 H        -2.067648         0.224085         2.232746
 H        -0.618418         2.132888         1.296711
 H        -2.765484         3.553111         0.206412
 H        -3.246861         3.177950        -2.061064
 H        -2.161677         1.722620        -3.466471
 H        -0.619929         1.846237        -2.599587
 H        -1.563757        -1.251423        -0.961575
 H        -0.092701        -0.230350        -1.447030
