19
Iteration:   888
 O         0.194218        -0.102484         1.053909
 C        -0.935036         0.511162         0.368972
 C        -2.360206         0.759332         0.815002
 C        -1.390879         1.940042         0.686470
 C        -1.856518         2.975782        -0.212750
 C        -2.365597         2.762231        -1.488047
 C        -2.401986         1.504584        -2.512134
 O        -1.982611         0.189589        -2.001926
 C        -0.797968         0.149117        -1.154041
 H         0.622370         0.556366         1.607590
 H        -3.055561         0.578554         0.005395
 H        -2.528040         0.264579         1.758007
 H        -0.812586         2.175827         1.570087
 H        -2.084318         4.005533         0.235035
 H        -2.683848         3.655190        -1.979925
 H        -3.438906         1.322814        -2.795087
 H        -1.662236         1.620628        -3.290462
 H        -0.255012        -0.762714        -1.209099
 H         0.000420         0.870293        -1.553245
