19
Iteration:  3414charge 0 multiplicity 1
 O         0.286511         0.157915         0.914649
 C        -1.003046         0.422725         0.307189
 C        -2.265599         0.497319         1.127887
 C        -1.578266         1.840869         0.668905
 C        -2.018623         2.872790        -0.276228
 C        -2.282585         2.818432        -1.588946
 C        -1.930599         1.711362        -2.503747
 O        -2.144942         0.367618        -1.948341
 C        -1.022698        -0.109983        -1.117039
 H         0.839097         0.862845         0.576547
 H        -3.195897         0.238569         0.614852
 H        -2.212017         0.325480         2.182424
 H        -0.945835         2.333231         1.489804
 H        -2.397314         3.758048         0.180845
 H        -2.495741         3.750748        -2.019639
 H        -2.485180         1.821882        -3.476310
 H        -0.815382         1.759788        -2.641831
 H        -1.081948        -1.212097        -1.004606
 H        -0.076481         0.228014        -1.558821
