19
Iteration:  3088charge 0 multiplicity 1
 O         0.189019        -0.099876         0.941625
 C        -0.954654         0.549641         0.259920
 C        -2.074174         0.698023         1.160901
 C        -1.424271         1.976116         0.633567
 C        -2.284889         2.792045        -0.266856
 C        -2.505944         2.724365        -1.612562
 C        -1.714495         1.730278        -2.500831
 O        -2.123552         0.411426        -1.963012
 C        -1.083550        -0.097365        -1.117633
 H         1.002192         0.278524         0.506093
 H        -3.158317         0.650002         0.859495
 H        -1.723044         0.395193         2.165922
 H        -0.913558         2.544675         1.428968
 H        -2.777235         3.593119         0.372665
 H        -2.966476         3.531692        -2.131398
 H        -1.881623         1.713279        -3.514404
 H        -0.618408         1.899963        -2.257932
 H        -1.299299        -1.202104        -0.945450
 H        -0.031215         0.050575        -1.603008
