19
Iteration:   482
 O         0.074972        -0.038078         0.888692
 C        -1.013250         0.515804         0.297466
 C        -2.286129         0.647913         1.118499
 C        -1.497992         1.949177         0.714787
 C        -1.869861         2.897164        -0.273775
 C        -2.382451         2.699552        -1.535394
 C        -2.291603         1.509736        -2.410754
 O        -1.837071         0.285032        -2.036326
 C        -0.777436         0.211934        -1.236441
 H         0.067015         0.192178         1.785898
 H        -3.293657         0.459554         0.715323
 H        -2.076612         0.271714         2.142843
 H        -1.046955         2.354147         1.575180
 H        -1.871273         3.941526        -0.006383
 H        -2.573042         3.600247        -2.059206
 H        -3.216833         1.289031        -2.894907
 H        -1.675305         1.851502        -3.207577
 H        -0.668625        -0.885094        -1.108821
 H         0.165700         0.712209        -1.462117
