19
Iteration:  4466charge 0 multiplicity 1
 O         0.140468         0.112492         1.128326
 C        -0.936029         0.510575         0.343324
 C        -2.230041         0.394906         0.889846
 C        -1.559970         1.841637         0.744863
 C        -1.888950         2.899301        -0.307798
 C        -2.112329         2.772330        -1.626834
 C        -2.300714         1.574211        -2.474017
 O        -2.100586         0.354378        -1.901055
 C        -0.880178         0.127691        -1.187346
 H         0.919539         0.789905         1.012505
 H        -2.898633         0.197847         0.043251
 H        -2.579916         0.168303         1.886289
 H        -1.229070         2.226040         1.677492
 H        -1.634103         3.851628         0.108992
 H        -2.324791         3.600022        -2.210719
 H        -3.298616         1.661026        -2.914098
 H        -1.784823         1.730197        -3.446963
 H        -0.541979        -0.988743        -1.428528
 H        -0.182444         0.761479        -1.715315
