19
Iteration:  3680
 O        -0.006162        -0.108708         1.075966
 C        -0.907662         0.577497         0.248928
 C        -2.237907         0.497915         0.850530
 C        -1.567578         1.885377         0.800316
 C        -1.908209         3.004949        -0.313668
 C        -2.090015         2.796008        -1.619014
 C        -2.491747         1.456763        -2.476258
 O        -1.975818         0.249218        -1.854849
 C        -0.671407         0.342843        -1.173682
 H         0.779650         0.543166         1.172784
 H        -3.145066         0.515530         0.279459
 H        -2.278510        -0.021232         1.826882
 H        -1.059381         2.175172         1.668610
 H        -1.685608         3.978460         0.003070
 H        -2.397542         3.675428        -2.131246
 H        -3.606269         1.233552        -2.497626
 H        -2.081353         1.444394        -3.484813
 H        -0.097302        -0.624167        -1.258715
 H        -0.037840         1.006395        -1.694644
