19
Iteration:  2289charge 0 multiplicity 1
 O         0.238090        -0.001149         0.906953
 C        -0.878428         0.569430         0.226983
 C        -2.210672         0.712844         1.148945
 C        -1.511894         1.934489         0.635039
 C        -2.267406         2.838077        -0.274131
 C        -2.420950         2.836509        -1.611269
 C        -1.794945         1.666767        -2.429339
 O        -2.112163         0.374840        -1.909819
 C        -0.991465        -0.213736        -1.089348
 H         0.985636         0.009108         0.206133
 H        -3.207526         0.617209         0.512981
 H        -2.250655         0.386667         2.239903
 H        -0.867664         2.566949         1.322971
 H        -2.848016         3.618223         0.311086
 H        -2.775555         3.744318        -2.081095
 H        -2.118247         1.605072        -3.477347
 H        -0.666679         1.741285        -2.466949
 H        -1.094493        -1.285528        -0.901083
 H        -0.080943        -0.192522        -1.679890
