19
Iteration:  1878
 O         0.171383         0.030084         0.964139
 C        -0.984660         0.489819         0.288025
 C        -2.150598         0.679325         1.139727
 C        -1.392256         1.910906         0.613288
 C        -2.171355         2.890342        -0.229976
 C        -2.458144         2.810027        -1.531954
 C        -1.880990         1.662272        -2.543688
 O        -2.014590         0.355792        -2.010551
 C        -1.061755        -0.140327        -1.101412
 H         0.933751         0.496597         0.621704
 H        -3.005963         0.395355         0.534337
 H        -2.133681         0.418428         2.221735
 H        -0.705063         2.313413         1.352158
 H        -2.648223         3.663855         0.362901
 H        -2.918897         3.663976        -1.965346
 H        -2.441519         1.645840        -3.441379
 H        -0.858835         1.926559        -2.805459
 H        -1.287173        -1.271839        -1.056026
 H        -0.062502        -0.134129        -1.469973
