19
Iteration:  3134charge 0 multiplicity 1
 O         0.188404         0.140304         0.964654
 C        -0.998610         0.468434         0.263353
 C        -2.236839         0.673381         1.147553
 C        -1.393071         1.849232         0.674236
 C        -2.092016         2.856003        -0.245186
 C        -2.460549         2.773495        -1.496174
 C        -1.928694         1.679868        -2.436600
 O        -1.959486         0.346779        -2.093560
 C        -1.129181        -0.157097        -1.133451
 H         0.930055         0.460237         0.319137
 H        -3.138515         0.438129         0.642750
 H        -2.118173         0.349432         2.143591
 H        -0.550352         2.328095         1.311923
 H        -2.300833         3.816448         0.131853
 H        -2.855575         3.642383        -1.972184
 H        -2.406587         1.650215        -3.381612
 H        -0.801329         1.937595        -2.528957
 H        -1.339990        -1.244545        -1.121974
 H        -0.032931         0.028773        -1.545349
