19
Iteration:   642
 O         0.203449         0.023110         1.091416
 C        -0.888088         0.518831         0.304223
 C        -2.212967         0.695237         1.080842
 C        -1.426376         1.914523         0.613189
 C        -2.058716         2.962179        -0.273782
 C        -2.545936         2.787837        -1.529013
 C        -1.986670         1.725177        -2.400000
 O        -2.042130         0.255243        -2.117685
 C        -0.926791        -0.123322        -1.128327
 H         0.588491        -0.516995         0.441936
 H        -2.996842         0.301745         0.417279
 H        -2.189699         0.244997         2.064835
 H        -0.971337         2.468757         1.381835
 H        -2.285494         3.790764         0.269114
 H        -3.155206         3.550467        -1.998106
 H        -2.649769         1.837679        -3.354286
 H        -1.023377         1.928364        -2.858299
 H        -1.178319        -1.194990        -1.245936
 H         0.015577         0.291756        -1.478139
