19
Iteration:  2088
 O         0.105583        -0.004690         1.077773
 C        -0.950374         0.526217         0.277860
 C        -2.351587         0.685948         0.818005
 C        -1.422469         1.880361         0.768356
 C        -1.794254         2.892326        -0.285090
 C        -2.280299         2.621487        -1.529653
 C        -2.377107         1.512887        -2.407730
 O        -2.020479         0.245805        -1.914354
 C        -0.785682         0.273978        -1.228304
 H         0.726678         0.727910         1.202903
 H        -3.192781         0.741929         0.140011
 H        -2.454013         0.225145         1.845186
 H        -1.063942         2.095868         1.807178
 H        -1.889609         3.954988         0.064457
 H        -2.435778         3.541906        -2.227976
 H        -3.280600         1.296814        -2.945485
 H        -1.669546         1.765873        -3.305180
 H        -0.457318        -0.835084        -1.290894
 H         0.082475         0.818070        -1.637992
