19
Iteration:  3486charge 0 multiplicity 1
 O         0.222456         0.026364         0.834060
 C        -0.979746         0.495585         0.291085
 C        -2.151548         0.620964         1.206324
 C        -1.427838         1.947758         0.614301
 C        -2.207965         2.877736        -0.252776
 C        -2.490080         2.667674        -1.592096
 C        -1.650881         1.764194        -2.412231
 O        -2.025463         0.386894        -2.057894
 C        -1.211178        -0.113672        -1.045228
 H         0.847341         0.299699         0.188012
 H        -3.159583         0.469219         0.783887
 H        -2.031381         0.548611         2.278741
 H        -0.823758         2.248276         1.356030
 H        -2.934050         3.499411         0.332955
 H        -3.152917         3.399766        -2.002792
 H        -1.893892         1.908607        -3.416779
 H        -0.624035         2.017902        -2.118305
 H        -1.597243        -1.105327        -0.862627
 H        -0.164605        -0.100818        -1.457911
