19
Iteration:  2273charge 0 multiplicity 1
 O         0.214077         0.071118         0.909888
 C        -1.040846         0.455843         0.321368
 C        -2.209111         0.656289         1.197116
 C        -1.443101         1.886497         0.568352
 C        -2.168246         2.835962        -0.286890
 C        -2.353438         2.756071        -1.624597
 C        -1.831355         1.695650        -2.478104
 O        -2.051811         0.354899        -1.913789
 C        -1.077005        -0.025776        -1.095367
 H         1.000090         0.172124         0.303231
 H        -3.118787         0.333869         0.817211
 H        -1.992869         0.585881         2.225273
 H        -0.854666         2.311599         1.351494
 H        -2.543587         3.653346         0.317769
 H        -3.170946         3.296800        -2.156175
 H        -2.314335         1.815964        -3.481800
 H        -0.766137         1.919407        -2.706665
 H        -1.161888        -1.161154        -1.121288
 H        -0.013698         0.051455        -1.486310
