19
Iteration:  4071charge 0 multiplicity 1
 O         0.157583        -0.036059         1.109277
 C        -0.891873         0.568643         0.313119
 C        -2.295688         0.480523         0.828728
 C        -1.556505         1.863708         0.655391
 C        -1.960224         2.892957        -0.273180
 C        -2.064809         2.787938        -1.612837
 C        -2.412678         1.558282        -2.469189
 O        -2.055085         0.308452        -1.864008
 C        -0.787158         0.220637        -1.137199
 H         0.909651         0.614986         1.246868
 H        -3.109984         0.271860         0.095572
 H        -2.486494         0.211865         1.884798
 H        -1.272082         2.283894         1.611674
 H        -1.817136         3.846745         0.107480
 H        -2.227625         3.727058        -2.199210
 H        -3.459025         1.369407        -2.774824
 H        -1.765842         1.699128        -3.487176
 H        -0.534329        -0.776122        -1.143010
 H        -0.062304         0.832580        -1.694962
