19
Iteration:  4064charge 0 multiplicity 1
 O         0.179158         0.004093         1.102806
 C        -0.925210         0.500397         0.286419
 C        -2.346392         0.465924         0.853904
 C        -1.635426         1.860218         0.680067
 C        -1.866490         2.898539        -0.322624
 C        -2.059735         2.793965        -1.609112
 C        -2.357861         1.509673        -2.472558
 O        -2.060519         0.321479        -1.801725
 C        -0.781357         0.247550        -1.215054
 H         0.865774         0.796392         1.102879
 H        -3.139541        -0.011987         0.295358
 H        -2.370646         0.255225         1.921048
 H        -1.373348         2.324913         1.671428
 H        -1.949402         3.888037         0.313312
 H        -2.148109         3.823074        -2.173185
 H        -3.432925         1.599873        -2.699834
 H        -1.873882         1.684173        -3.379963
 H        -0.626023        -0.933426        -1.318326
 H         0.008830         0.959968        -1.734659
