19
Iteration:  1144charge 0 multiplicity 1
 O         0.345560         0.219667         0.886814
 C        -0.999872         0.548772         0.297653
 C        -2.150037         0.510738         1.183781
 C        -1.606874         1.842043         0.619180
 C        -2.266062         2.842776        -0.320087
 C        -2.181953         2.912020        -1.631983
 C        -1.776864         1.708446        -2.386795
 O        -2.181135         0.333133        -1.908347
 C        -1.202146        -0.224446        -1.147252
 H         1.087305         0.151687         0.164581
 H        -3.111094         0.063621         1.037554
 H        -2.013263         0.657204         2.228542
 H        -0.756579         2.148551         1.352430
 H        -2.725512         3.772516         0.235687
 H        -2.339178         3.699394        -2.303738
 H        -2.045333         1.794173        -3.411230
 H        -0.683544         1.661354        -2.320128
 H        -1.429897        -1.286202        -1.060641
 H        -0.230617        -0.263335        -1.730786
