19
Iteration:  1671
 O         0.006411        -0.046319         1.224142
 C        -0.896486         0.538787         0.291560
 C        -2.242962         0.561447         0.905123
 C        -1.356319         1.887343         0.677998
 C        -1.775803         2.846381        -0.365459
 C        -2.313418         2.762025        -1.592014
 C        -2.399616         1.530665        -2.488999
 O        -2.006013         0.315162        -1.963917
 C        -0.802266         0.259696        -1.179336
 H         0.930266        -0.026924         1.008263
 H        -3.160273         0.510069         0.372114
 H        -2.297165         0.170556         1.890943
 H        -1.009757         2.317061         1.663767
 H        -2.028214         3.745677         0.241831
 H        -2.984808         3.533552        -1.938175
 H        -3.497006         1.456514        -2.767654
 H        -1.853961         1.756896        -3.423203
 H        -0.304456        -0.645445        -1.349395
 H        -0.168614         1.157074        -1.621877
