19
Iteration:   477charge 0 multiplicity 1
 O         0.107727        -0.045871         0.907771
 C        -1.039466         0.498559         0.301879
 C        -2.319819         0.716851         1.124339
 C        -1.453348         1.889082         0.693935
 C        -1.903542         2.867847        -0.298355
 C        -2.436036         2.709917        -1.509388
 C        -2.283074         1.542560        -2.420417
 O        -1.828618         0.284887        -2.041634
 C        -0.761481         0.175445        -1.228823
 H         0.153435         0.215340         1.884616
 H        -3.307703         0.496310         0.738500
 H        -2.169268         0.343254         2.125441
 H        -0.936278         2.392154         1.581770
 H        -1.840270         3.893340         0.129997
 H        -2.522709         3.625086        -2.198196
 H        -3.305292         1.465443        -2.950036
 H        -1.713541         1.982479        -3.363204
 H        -0.457390        -0.879276        -1.037753
 H         0.185293         0.748522        -1.515839
