19
Iteration:  4140
 O         0.035964        -0.128478         1.128734
 C        -0.934850         0.527168         0.274592
 C        -2.242580         0.748720         1.035243
 C        -1.322991         1.965133         0.703771
 C        -2.053153         2.886021        -0.241854
 C        -2.426001         2.718793        -1.561441
 C        -2.212020         1.571208        -2.566565
 O        -1.940073         0.258899        -2.005092
 C        -0.777212         0.118035        -1.193051
 H         0.836320        -0.005890         0.696489
 H        -3.213816         0.852236         0.572330
 H        -2.297150         0.341575         2.033295
 H        -0.716828         2.418223         1.510967
 H        -2.411140         3.901356         0.211135
 H        -3.155910         3.629709        -1.847290
 H        -3.014606         1.631572        -3.327980
 H        -1.176233         1.872219        -3.034790
 H        -0.637705        -0.970978        -1.357315
 H         0.065250         0.729875        -1.617114
