19
Iteration:  4640
 O         0.220921         0.274653         0.856549
 C        -1.026465         0.530088         0.223532
 C        -2.187073         0.400346         1.187979
 C        -1.669247         1.793363         0.779189
 C        -2.174816         2.883480        -0.206896
 C        -2.062468         2.851298        -1.589372
 C        -1.830950         1.600778        -2.568997
 O        -2.123889         0.368070        -1.937940
 C        -1.062374        -0.073217        -1.127209
 H         0.821422         0.880321         0.515945
 H        -3.142626        -0.032943         0.740826
 H        -2.001881         0.091147         2.282668
 H        -0.950644         2.235835         1.544031
 H        -2.340325         3.809787         0.201345
 H        -2.344217         3.831569        -2.088068
 H        -2.715047         1.693632        -3.249112
 H        -0.880821         1.551736        -3.012173
 H        -1.533824        -1.136337        -1.048541
 H        -0.120672        -0.115560        -1.742252
