19
Iteration:  1223
 O         0.165156         0.007077         1.009960
 C        -0.979589         0.555107         0.264333
 C        -2.194234         0.660554         1.071413
 C        -1.414413         1.934657         0.584980
 C        -2.078795         2.971367        -0.236540
 C        -2.342355         2.757685        -1.515586
 C        -2.060131         1.554604        -2.412412
 O        -2.046262         0.253139        -2.032108
 C        -0.988595        -0.014000        -1.162323
 H         0.961457         0.651798         1.007569
 H        -3.131646         0.459624         0.535327
 H        -2.187328         0.242631         2.077462
 H        -0.867863         2.242352         1.459922
 H        -2.306634         3.892782         0.277371
 H        -2.644663         3.651877        -2.077412
 H        -2.758541         1.640741        -3.188903
 H        -1.055817         1.743974        -2.866971
 H        -0.995704        -1.163692        -1.136008
 H        -0.036053         0.349126        -1.640493
