19
Iteration:   686charge 0 multiplicity 1
 O         0.126106        -0.037602         0.970960
 C        -0.968148         0.469800         0.202064
 C        -2.110411         0.769845         1.182002
 C        -1.365466         1.908055         0.542326
 C        -2.189414         2.795979        -0.240927
 C        -2.471732         2.760206        -1.596431
 C        -1.881569         1.712782        -2.489506
 O        -2.055915         0.408683        -1.911242
 C        -1.021490        -0.093660        -1.138822
 H         0.827209         0.537590         1.153264
 H        -3.065074         0.490080         0.749846
 H        -1.866075         0.383888         2.203414
 H        -0.668348         2.410492         1.160935
 H        -2.845911         3.309151         0.358444
 H        -3.164533         3.505323        -1.912849
 H        -2.230328         1.529987        -3.584217
 H        -0.750816         1.906521        -2.672604
 H        -0.981079        -1.248267        -1.076802
 H        -0.099157         0.282123        -1.644320
