19
Iteration:  4887
 O         0.119329         0.067612         1.027983
 C        -0.978662         0.532731         0.258045
 C        -2.261313         0.511956         0.953751
 C        -1.575833         1.850835         0.717434
 C        -1.976505         2.866630        -0.259350
 C        -2.097390         2.829490        -1.572881
 C        -2.226100         1.599373        -2.406376
 O        -2.027553         0.273100        -1.952294
 C        -0.890189         0.115253        -1.176170
 H         1.018552         0.433947         0.696803
 H        -3.245204         0.339681         0.383121
 H        -2.150249         0.127525         2.057359
 H        -1.027338         2.386515         1.587283
 H        -2.043341         3.847413         0.206751
 H        -2.471602         3.760430        -2.018532
 H        -3.174370         1.591041        -2.837900
 H        -1.608784         1.669141        -3.297994
 H        -0.535874        -0.899671        -1.163207
 H         0.024802         0.532387        -1.772532
