19
Iteration:  1423
 O         0.117932        -0.115704         0.970967
 C        -0.939730         0.495949         0.250530
 C        -2.185530         0.639637         1.155731
 C        -1.432565         1.913210         0.671198
 C        -2.166850         2.911091        -0.291707
 C        -2.320623         2.835187        -1.675326
 C        -2.029897         1.599314        -2.531806
 O        -2.090658         0.363413        -1.833802
 C        -0.870238         0.027341        -1.153412
 H         0.838798         0.432722         0.762244
 H        -3.100485         0.449857         0.625338
 H        -1.938235         0.286104         2.106822
 H        -0.884041         2.474064         1.481934
 H        -2.521206         3.834682         0.273459
 H        -2.851093         3.636620        -2.192384
 H        -2.741675         1.687563        -3.308101
 H        -0.987595         1.866129        -3.024103
 H        -0.819063        -1.113765        -1.164763
 H         0.093429         0.334873        -1.631669
