19
Iteration:   908
 O         0.164881        -0.121028         0.974672
 C        -0.943958         0.529538         0.339235
 C        -2.297041         0.583765         0.883424
 C        -1.498937         1.917018         0.674788
 C        -1.987740         2.953745        -0.310746
 C        -2.152561         2.824967        -1.643917
 C        -2.341901         1.521554        -2.351868
 O        -2.006969         0.238827        -1.834367
 C        -0.741003         0.216804        -1.219974
 H         0.498707         0.461452         1.629697
 H        -3.116867         0.453664         0.204026
 H        -2.556690         0.422811         1.924455
 H        -1.209751         2.310244         1.683730
 H        -2.043572         4.031847         0.121636
 H        -2.558095         3.698596        -2.161829
 H        -3.496926         1.397732        -2.466842
 H        -1.936304         1.564512        -3.392024
 H        -0.326430        -0.829064        -1.331504
 H        -0.027898         0.941762        -1.685785
