19
Iteration:  3260
 O         0.102183         0.036170         1.100678
 C        -0.969870         0.554899         0.227056
 C        -2.323017         0.533097         0.903579
 C        -1.546553         1.886709         0.787524
 C        -1.866396         2.900533        -0.277015
 C        -2.136239         2.773299        -1.560193
 C        -2.387377         1.609294        -2.395143
 O        -1.985953         0.251884        -1.970112
 C        -0.743945         0.097078        -1.242630
 H         0.978489         0.548989         0.888924
 H        -3.123538         0.363117         0.178565
 H        -2.579632         0.081618         1.887700
 H        -1.068258         2.326106         1.599985
 H        -1.834020         3.943547         0.078329
 H        -2.405940         3.667249        -2.124331
 H        -3.572553         1.479375        -2.335786
 H        -1.986870         1.682380        -3.427965
 H        -0.374741        -0.969475        -1.272929
 H        -0.022916         0.921756        -1.653107
