19
Iteration:  2085
 O         0.105757        -0.018440         1.103473
 C        -0.957665         0.520417         0.260807
 C        -2.330006         0.694373         0.818156
 C        -1.422524         1.882758         0.760790
 C        -1.828726         2.890163        -0.278204
 C        -2.295694         2.650370        -1.525069
 C        -2.337519         1.526238        -2.434426
 O        -2.044818         0.238366        -1.898646
 C        -0.761103         0.255429        -1.237323
 H         0.732705         0.779099         1.203912
 H        -3.182062         0.730422         0.097164
 H        -2.360480         0.145746         1.813547
 H        -1.027492         2.172498         1.740493
 H        -1.837963         3.941367         0.023325
 H        -2.369631         3.462265        -2.200089
 H        -3.410798         1.322496        -2.943754
 H        -1.772907         1.780432        -3.264275
 H        -0.433454        -0.777060        -1.289927
 H         0.071221         0.796194        -1.605015
