19
Iteration:  2813
 O         0.162998         0.010196         1.049339
 C        -0.906441         0.593392         0.304012
 C        -2.330659         0.487773         0.874375
 C        -1.596234         1.847409         0.653645
 C        -1.863626         2.941755        -0.283604
 C        -2.277723         2.865808        -1.598674
 C        -2.203749         1.502951        -2.521717
 O        -2.096848         0.324242        -1.756491
 C        -0.776658         0.116387        -1.170882
 H         1.023177         0.480578         0.795235
 H        -3.098327         0.112368         0.303033
 H        -2.365811         0.287483         1.915953
 H        -1.159411         2.232619         1.541714
 H        -1.891465         3.919099         0.213818
 H        -2.696133         3.687572        -2.122094
 H        -3.162948         1.453941        -3.126936
 H        -1.327098         1.452324        -3.123634
 H        -0.677808        -0.964327        -1.174866
 H        -0.057328         0.639991        -1.762130
