19
Iteration:  4160charge 0 multiplicity 1
 O         0.070367        -0.122317         1.078327
 C        -0.891910         0.606106         0.322835
 C        -2.140374         0.680641         1.064369
 C        -1.456151         1.963095         0.644753
 C        -2.042945         2.864356        -0.288197
 C        -2.424699         2.679038        -1.591301
 C        -2.033361         1.619144        -2.533487
 O        -2.003306         0.336285        -2.000763
 C        -0.925298         0.039277        -1.171039
 H         0.914293         0.339988         0.877359
 H        -3.022629         0.303390         0.542994
 H        -2.122771         0.416282         2.125167
 H        -1.016004         2.519393         1.530022
 H        -2.521537         3.721723         0.343136
 H        -2.951295         3.678139        -1.894609
 H        -2.944151         1.731589        -3.138308
 H        -1.270277         1.915652        -3.153059
 H        -0.904897        -0.977125        -1.004763
 H        -0.069216         0.418768        -1.623891
