19
Iteration:  2372charge 0 multiplicity 1
 O         0.200321         0.045527         0.919613
 C        -1.011766         0.499333         0.269157
 C        -2.200274         0.647169         1.213100
 C        -1.528447         1.899763         0.742042
 C        -2.165372         2.859470        -0.262905
 C        -2.235149         2.825571        -1.594746
 C        -1.950431         1.654099        -2.552313
 O        -2.033924         0.273196        -2.010602
 C        -0.988630        -0.042533        -1.134010
 H         0.996471         0.596391         0.734571
 H        -3.081605         0.230208         1.050628
 H        -1.796521         0.446655         2.163006
 H        -1.077230         2.456672         1.496907
 H        -2.744054         3.633529         0.139566
 H        -2.780037         3.604670        -2.108029
 H        -2.726230         1.818757        -3.317594
 H        -1.025706         1.849981        -3.052401
 H        -1.264378        -1.082968        -0.873608
 H        -0.015889         0.147388        -1.722697
