19
Iteration:  3915
 O         0.054475        -0.060694         1.001571
 C        -0.968364         0.550042         0.174768
 C        -2.101382         0.727722         1.191739
 C        -1.314052         2.004819         0.671972
 C        -2.214150         2.831025        -0.216712
 C        -2.573821         2.741770        -1.572588
 C        -1.835877         1.726064        -2.512059
 O        -1.932249         0.375818        -2.086457
 C        -1.009993        -0.201055        -1.091719
 H         0.902334        -0.013371         0.592659
 H        -3.136591         0.828665         0.880368
 H        -1.944912         0.443969         2.216899
 H        -0.704141         2.662374         1.392068
 H        -2.954521         3.497641         0.337851
 H        -3.364817         3.411391        -1.897884
 H        -2.329543         1.922621        -3.475153
 H        -0.839541         2.016557        -2.585088
 H        -1.191209        -1.223761        -1.024913
 H         0.004996        -0.234710        -1.607193
