19
Iteration:  1117
 O         0.216993         0.217687         0.806599
 C        -1.057735         0.524735         0.273801
 C        -2.194096         0.632534         1.177093
 C        -1.467473         1.891380         0.668574
 C        -2.101382         2.846708        -0.229308
 C        -2.362652         2.734948        -1.575485
 C        -1.724424         1.681051        -2.457113
 O        -2.041904         0.396107        -1.938906
 C        -1.193143        -0.178702        -1.054060
 H         0.851986        -0.005138         0.023147
 H        -3.162200         0.425653         0.679659
 H        -2.064079         0.116971         2.182995
 H        -0.639573         2.152818         1.274744
 H        -2.710500         3.567973         0.251228
 H        -3.250637         3.188887        -2.086928
 H        -2.178620         1.749306        -3.521544
 H        -0.631793         1.797637        -2.587349
 H        -1.524318        -1.240960        -0.985264
 H        -0.095113        -0.230646        -1.532267
