19
Iteration:   195
 O         0.291090         0.001311         1.001075
 C        -0.924963         0.531103         0.362463
 C        -2.213795         0.476413         1.082336
 C        -1.653167         1.868692         0.764927
 C        -2.050790         2.959073        -0.249759
 C        -2.349960         2.877832        -1.570324
 C        -2.115875         1.682377        -2.528524
 O        -2.023854         0.261352        -2.039217
 C        -0.919806         0.078213        -1.170689
 H         0.521705        -0.814875         0.474654
 H        -3.106560         0.177659         0.545218
 H        -2.240352         0.363976         2.153617
 H        -1.085913         2.420065         1.556409
 H        -2.109183         3.904978         0.265604
 H        -2.420406         3.854427        -2.067651
 H        -2.949728         1.598033        -3.224447
 H        -1.321917         1.913659        -3.208740
 H        -0.564439        -0.986737        -1.204814
 H        -0.072055         0.600972        -1.738773
