19
Iteration:  4984
 O         0.140031         0.020735         1.082260
 C        -0.944686         0.522716         0.306004
 C        -2.143850         0.517891         0.998590
 C        -1.462332         1.867185         0.591695
 C        -2.154416         2.894057        -0.222669
 C        -2.358878         2.823739        -1.569852
 C        -2.055866         1.683766        -2.552395
 O        -2.050506         0.406954        -1.928186
 C        -0.916278        -0.047078        -1.139336
 H         1.082979         0.150504         0.648029
 H        -3.022533         0.212154         0.364993
 H        -2.182438         0.394765         2.154650
 H        -0.865107         2.203194         1.545726
 H        -2.617012         3.668049         0.366255
 H        -2.660168         3.692513        -2.041467
 H        -2.679391         1.697324        -3.525359
 H        -0.940404         1.867596        -3.017118
 H        -1.076371        -1.186573        -1.111442
 H         0.143997         0.232461        -1.566964
