19
Iteration:   291
 O         0.265552        -0.009147         0.842422
 C        -0.891585         0.526869         0.277210
 C        -2.204893         0.465756         0.947631
 C        -1.446967         1.908794         0.575049
 C        -2.170213         2.870316        -0.310754
 C        -2.484611         2.812190        -1.577629
 C        -1.876786         1.812206        -2.407899
 O        -2.050153         0.441609        -1.849142
 C        -1.013366        -0.104081        -1.030217
 H         0.667382         0.392878         1.692299
 H        -3.089814         0.258993         0.355996
 H        -2.257531         0.455865         2.034168
 H        -1.062057         2.286610         1.538058
 H        -2.849248         3.454368         0.301599
 H        -3.342993         3.395610        -1.924653
 H        -2.124163         1.789673        -3.514124
 H        -0.756032         1.849299        -2.506813
 H        -1.315599        -1.150536        -0.771276
 H        -0.063411        -0.231304        -1.566690
