19
Iteration:   579charge 0 multiplicity 1
 O         0.353346         0.127980         1.030143
 C        -0.867488         0.490508         0.370735
 C        -2.227000         0.466084         1.031226
 C        -1.666897         1.799461         0.672962
 C        -2.045598         2.888793        -0.272035
 C        -2.121526         2.859262        -1.650588
 C        -2.208859         1.584557        -2.610168
 O        -2.167029         0.405843        -1.916157
 C        -0.920624         0.075448        -1.147781
 H         0.115678        -0.339165         1.796195
 H        -2.979900        -0.044732         0.405709
 H        -2.178551         0.136616         2.070413
 H        -1.363105         2.193899         1.593388
 H        -2.108216         3.819857         0.263560
 H        -2.048236         3.782990        -2.155485
 H        -3.233777         1.616479        -3.047711
 H        -1.419113         1.631294        -3.469409
 H        -0.786943        -1.016517        -1.100790
 H        -0.092282         0.636276        -1.691487
