19
Iteration:  2260charge 0 multiplicity 1
 O         0.161831         0.107421         1.001261
 C        -1.025524         0.429976         0.325975
 C        -2.121490         0.596134         1.239809
 C        -1.442217         1.896449         0.612264
 C        -2.052634         2.874773        -0.288528
 C        -2.406307         2.713079        -1.571944
 C        -1.872268         1.690107        -2.600816
 O        -2.080356         0.398009        -2.054170
 C        -1.073816        -0.101941        -1.074844
 H         0.752036         0.539194         0.374443
 H        -3.180225         0.383644         0.937420
 H        -1.943209         0.379762         2.286812
 H        -0.787662         2.418563         1.339724
 H        -2.748536         3.649054         0.177315
 H        -2.837305         3.672849        -1.912197
 H        -2.465494         1.556217        -3.490769
 H        -0.798013         1.737387        -2.784859
 H        -1.011302        -1.190368        -1.092555
 H        -0.170026         0.502356        -1.471751
