19
Iteration:  3361
 O         0.064008        -0.025441         1.085429
 C        -0.910968         0.510013         0.233778
 C        -2.254774         0.518151         0.942017
 C        -1.501178         1.853804         0.654570
 C        -2.047055         2.997399        -0.272511
 C        -2.225505         2.831381        -1.568419
 C        -2.217553         1.544311        -2.432077
 O        -1.994111         0.314181        -1.838665
 C        -0.821649         0.115230        -1.246238
 H         0.904288         0.375776         0.971603
 H        -3.266920         0.352632         0.563726
 H        -2.204609         0.180677         1.941807
 H        -0.810530         2.424950         1.356206
 H        -1.947592         3.922763         0.240534
 H        -2.516150         3.677613        -2.097772
 H        -3.256322         1.535073        -2.947052
 H        -1.603121         1.659441        -3.349057
 H        -0.463804        -0.951257        -1.291817
 H        -0.026778         0.672835        -1.839616
