19
Iteration:  2857
 O         0.119292        -0.025100         1.130305
 C        -0.890413         0.539940         0.288150
 C        -2.293564         0.611301         0.972374
 C        -1.482989         1.826424         0.745693
 C        -1.876384         2.875288        -0.275254
 C        -2.156974         2.721916        -1.642495
 C        -2.428188         1.578802        -2.539382
 O        -2.024935         0.251017        -1.989060
 C        -0.731881         0.255417        -1.208977
 H         0.463416         0.698044         1.741603
 H        -3.249513         0.629402         0.439823
 H        -2.362952         0.199084         1.960581
 H        -1.206247         2.149905         1.720562
 H        -1.855066         3.979408        -0.001435
 H        -2.641826         3.614559        -2.104324
 H        -3.548995         1.351583        -2.493387
 H        -1.985163         1.667728        -3.509240
 H        -0.510701        -0.807574        -1.085409
 H        -0.092307         0.903241        -1.790725
