19
Iteration:  3561charge 0 multiplicity 1
 O         0.262480        -0.026922         0.971693
 C        -0.903819         0.507658         0.309812
 C        -2.252208         0.663591         1.096469
 C        -1.505057         1.844758         0.675832
 C        -2.102549         2.832197        -0.301601
 C        -2.431807         2.774806        -1.577680
 C        -1.866771         1.665216        -2.568392
 O        -2.080272         0.459729        -1.931223
 C        -1.042607        -0.048644        -1.097275
 H         1.061352         0.269153         0.479459
 H        -3.251867         0.382752         0.718511
 H        -2.170047         0.541437         2.166500
 H        -1.132023         2.277493         1.559427
 H        -2.545013         3.468920         0.406134
 H        -2.908776         3.586185        -2.107801
 H        -2.556548         1.682776        -3.482627
 H        -0.782172         1.925261        -2.838999
 H        -1.140485        -1.133761        -1.156391
 H        -0.045669         0.120981        -1.614651
