19
Iteration:  3718charge 0 multiplicity 1
 O         0.027032        -0.071523         1.189473
 C        -0.933334         0.483584         0.272716
 C        -2.328116         0.662257         0.827962
 C        -1.387143         1.879855         0.650493
 C        -1.842259         2.891634        -0.301250
 C        -2.418709         2.713761        -1.494856
 C        -2.405417         1.500430        -2.454883
 O        -1.913127         0.285089        -1.946444
 C        -0.688201         0.279113        -1.176353
 H         0.936642         0.100407         0.945238
 H        -3.183036         0.698526         0.134497
 H        -2.480888         0.374451         1.860805
 H        -0.854935         2.256152         1.610091
 H        -1.626482         3.965033        -0.015982
 H        -2.848926         3.613037        -2.084934
 H        -3.399488         1.292343        -2.941814
 H        -1.779562         1.897797        -3.207220
 H        -0.393680        -0.727206        -1.357231
 H         0.032162         1.092488        -1.487060
