19
Iteration:  3346
 O         0.048026        -0.081321         1.183615
 C        -0.937951         0.409304         0.256960
 C        -2.232463         0.549898         0.940190
 C        -1.471556         1.879108         0.622031
 C        -1.882980         2.955285        -0.279916
 C        -2.321402         2.852094        -1.605178
 C        -2.363346         1.561589        -2.522391
 O        -2.018700         0.315721        -1.859462
 C        -0.675589         0.209646        -1.212062
 H         0.875488         0.309169         0.877102
 H        -3.102760         0.437710         0.297384
 H        -2.192052         0.328681         2.043470
 H        -1.043638         2.121503         1.557791
 H        -2.103450         3.963527         0.119836
 H        -2.758989         3.748265        -2.110156
 H        -3.359777         1.337753        -2.813643
 H        -1.690763         1.733706        -3.390541
 H        -0.334982        -0.796391        -1.450178
 H         0.050466         0.973433        -1.482460
