19
Iteration:  1657
 O         0.035034        -0.143646         1.299037
 C        -0.876784         0.447238         0.291050
 C        -2.197514         0.610338         0.958079
 C        -1.398792         1.892696         0.670176
 C        -1.951881         2.939305        -0.321472
 C        -2.326677         2.744685        -1.588568
 C        -2.370947         1.581193        -2.555221
 O        -2.074015         0.274615        -1.889243
 C        -0.721256         0.313106        -1.315032
 H         0.890352         0.224160         0.945713
 H        -3.037684         0.465451         0.283226
 H        -2.172892         0.333004         2.029589
 H        -0.755103         2.269662         1.450748
 H        -2.032219         4.004786        -0.000113
 H        -2.533194         3.755494        -2.134071
 H        -3.298602         1.443840        -2.981932
 H        -1.692127         1.688621        -3.380942
 H        -0.434488        -0.790283        -1.457098
 H        -0.003970         1.074153        -1.743545
