19
Iteration:  4592
 O         0.286802         0.052575         0.997680
 C        -0.957047         0.429540         0.285404
 C        -2.267429         0.563755         1.054984
 C        -1.546285         1.850743         0.622712
 C        -2.121708         2.890189        -0.280735
 C        -2.349050         2.861140        -1.614968
 C        -1.974309         1.696431        -2.541107
 O        -2.053100         0.400452        -1.891543
 C        -0.946153        -0.142464        -1.073721
 H         0.996746         0.757305         0.711478
 H        -3.157067         0.354237         0.515587
 H        -2.200889         0.249988         2.056164
 H        -1.089023         2.292704         1.485800
 H        -2.577113         3.831013         0.245055
 H        -2.772316         3.772819        -1.979389
 H        -2.683315         1.656085        -3.368956
 H        -0.930780         1.847746        -2.859487
 H        -1.095341        -1.144429        -1.157083
 H        -0.098358         0.258158        -1.553902
