19
Iteration:   122charge 0 multiplicity 1
 O         0.228247         0.071902         0.919259
 C        -0.913300         0.582654         0.370385
 C        -2.185940         0.277272         0.950669
 C        -1.709519         1.799202         0.664558
 C        -1.795693         2.936290        -0.294581
 C        -2.212780         2.884277        -1.609436
 C        -2.321884         1.676740        -2.475718
 O        -2.026327         0.310178        -1.933005
 C        -0.865352         0.192489        -1.076974
 H        -0.071065        -0.367183         1.797475
 H        -2.965272        -0.203959         0.340745
 H        -2.261151         0.103117         2.028450
 H        -1.525153         2.185210         1.705464
 H        -2.073553         3.879437         0.282346
 H        -2.461358         3.876522        -2.049240
 H        -3.329356         1.570075        -2.913743
 H        -1.725171         1.838180        -3.417469
 H        -0.622358        -0.840794        -1.174537
 H         0.054527         0.582870        -1.510883
