19
Iteration:  1813charge 0 multiplicity 1
 O         0.145464        -0.035401         1.005003
 C        -0.900007         0.583861         0.181624
 C        -2.234899         0.666949         1.010318
 C        -1.575703         1.875845         0.681694
 C        -2.138281         2.843142        -0.241664
 C        -2.143064         2.808892        -1.590231
 C        -2.166025         1.581188        -2.471785
 O        -2.049527         0.350319        -1.819401
 C        -0.864571         0.046213        -1.191127
 H         0.941707         0.382151         0.658426
 H        -3.092793         0.260814         0.463906
 H        -2.131198         0.191724         2.007094
 H        -1.073305         2.339431         1.528616
 H        -2.259109         3.826155         0.231652
 H        -2.218508         3.659675        -2.172733
 H        -3.078744         1.514277        -2.946035
 H        -1.309883         1.589989        -3.258796
 H        -0.814305        -1.120983        -0.992062
 H        -0.045994         0.365123        -1.807516
