19
Iteration:  4655
 O         0.266675         0.270912         0.879700
 C        -1.006888         0.497974         0.340174
 C        -2.220864         0.437411         1.216682
 C        -1.662382         1.802358         0.606942
 C        -2.133672         2.850711        -0.234347
 C        -2.084776         2.795825        -1.558226
 C        -1.934416         1.730676        -2.449192
 O        -2.093661         0.373330        -2.018589
 C        -1.098483        -0.198263        -1.149436
 H         0.939979         0.819570         0.327601
 H        -3.074748         0.038345         0.728945
 H        -2.163965         0.349264         2.258025
 H        -1.208676         2.308730         1.454696
 H        -2.420093         3.881029         0.251039
 H        -2.221291         3.718423        -2.158729
 H        -2.593916         1.845897        -3.289069
 H        -0.951481         1.921278        -2.953162
 H        -1.173656        -1.317546        -0.928890
 H        -0.020558         0.047626        -1.519275
