19
Iteration:  4380
 O         0.132128         0.013207         1.092052
 C        -0.946667         0.493430         0.304797
 C        -2.228223         0.594403         1.075636
 C        -1.491894         1.846047         0.685087
 C        -1.987746         2.902250        -0.239719
 C        -2.330332         2.768620        -1.573946
 C        -2.128982         1.619382        -2.571015
 O        -2.058250         0.314458        -1.989002
 C        -0.874450         0.076702        -1.233492
 H         0.800453         0.681064         0.930547
 H        -3.159857         0.411497         0.517437
 H        -2.197605         0.241143         2.097711
 H        -0.906120         2.250380         1.452119
 H        -2.322625         3.912492         0.323729
 H        -2.523220         3.643098        -2.101536
 H        -2.964118         1.559221        -3.272529
 H        -1.129146         1.782269        -3.003248
 H        -0.770814        -0.968958        -1.095089
 H         0.032870         0.548069        -1.642683
