19
Iteration:  2951charge 0 multiplicity 1
 O         0.062778        -0.012018         1.202873
 C        -0.873003         0.493231         0.234951
 C        -2.138990         0.508518         0.967725
 C        -1.556265         1.842013         0.715759
 C        -1.950575         2.960117        -0.366066
 C        -2.257297         2.842802        -1.657726
 C        -2.261588         1.569072        -2.489846
 O        -2.081027         0.315034        -1.812623
 C        -0.804204         0.154941        -1.280158
 H         0.873449         0.412338         0.982815
 H        -2.950326         0.210043         0.369920
 H        -2.180385         0.121530         1.921814
 H        -0.987506         2.298322         1.596786
 H        -2.176989         3.846368         0.133153
 H        -2.459550         3.678874        -2.261783
 H        -3.285975         1.507873        -2.821953
 H        -1.511064         1.642401        -3.283838
 H        -0.702886        -0.920254        -1.403399
 H        -0.040770         0.821558        -1.740459
