19
Iteration:    29charge 0 multiplicity 1
 O         0.235826        -0.098104         1.096431
 C        -0.855910         0.453678         0.322847
 C        -2.274619         0.559871         0.757188
 C        -1.410979         1.851867         0.560944
 C        -2.093668         2.956675        -0.278526
 C        -2.541489         2.916462        -1.523878
 C        -2.206020         1.684381        -2.410073
 O        -1.924185         0.386237        -1.827842
 C        -0.767170         0.035064        -1.156238
 H         0.387808        -0.945840         0.738872
 H        -3.136446         0.625509         0.088664
 H        -2.597475         0.417221         1.803972
 H        -1.227487         2.374013         1.506545
 H        -2.279972         3.806465         0.397374
 H        -3.156212         3.760265        -1.889982
 H        -3.146194         1.445208        -2.934780
 H        -1.479996         1.932045        -3.244924
 H        -0.536648        -1.062661        -1.207194
 H         0.183497         0.462774        -1.593438
