19
Iteration:  1923charge 0 multiplicity 1
 O         0.226856         0.047447         0.926430
 C        -0.969563         0.445541         0.301938
 C        -2.134720         0.626707         1.156193
 C        -1.476708         1.870951         0.622254
 C        -2.265871         2.843323        -0.300029
 C        -2.390186         2.759272        -1.625653
 C        -1.778736         1.677240        -2.503374
 O        -2.123631         0.417117        -1.916236
 C        -1.063159        -0.019281        -1.067605
 H         0.907175         0.113286         0.239461
 H        -3.196320         0.450428         0.777394
 H        -1.991410         0.306789         2.222718
 H        -0.766418         2.444590         1.191825
 H        -2.356665         3.805100         0.223414
 H        -3.042817         3.500214        -2.041026
 H        -1.971327         1.807964        -3.496018
 H        -0.728433         1.818431        -2.452256
 H        -1.252667        -1.162140        -1.027438
 H        -0.126964        -0.040622        -1.582716
