19
Iteration:   809charge 0 multiplicity 1
 O         0.278939        -0.016371         0.986287
 C        -0.934314         0.598891         0.349047
 C        -2.266524         0.542648         1.068434
 C        -1.520999         1.892440         0.701375
 C        -2.120715         2.856411        -0.304747
 C        -2.279073         2.788171        -1.683076
 C        -2.056288         1.624898        -2.615425
 O        -2.091264         0.415177        -1.785491
 C        -0.934856         0.010274        -1.119799
 H         0.943243        -0.105732         0.328645
 H        -3.144407         0.270702         0.487142
 H        -2.267650         0.261326         2.108667
 H        -1.125775         2.368236         1.627650
 H        -2.156629         3.914420         0.113106
 H        -2.704203         3.740491        -2.080055
 H        -2.872646         1.540993        -3.395132
 H        -1.129029         1.509855        -3.217344
 H        -0.941609        -1.100655        -0.980482
 H        -0.064561         0.377692        -1.723151
