19
Iteration:  2605
 O         0.249260         0.056170         0.977474
 C        -0.933586         0.507371         0.324471
 C        -2.222323         0.610226         1.097267
 C        -1.534854         1.905984         0.736395
 C        -2.045689         2.906366        -0.273557
 C        -2.305936         2.776060        -1.604701
 C        -2.004401         1.576727        -2.502451
 O        -2.122897         0.305062        -1.965016
 C        -0.979670        -0.014570        -1.212366
 H         0.796600         0.804298         1.007119
 H        -3.155934         0.524896         0.531243
 H        -2.328600         0.167639         2.114964
 H        -1.273602         2.315287         1.744755
 H        -1.985635         3.917123         0.154935
 H        -2.830569         3.543408        -2.135352
 H        -2.703157         1.603690        -3.402111
 H        -1.019808         1.664100        -2.881211
 H        -0.849986        -1.087575        -1.207826
 H        -0.167845         0.463870        -1.684694
