19
Iteration:  1919
 O         0.184384         0.039006         0.919971
 C        -0.935911         0.442813         0.295750
 C        -2.117552         0.653815         1.148480
 C        -1.483301         1.899686         0.620293
 C        -2.292908         2.856033        -0.274091
 C        -2.401687         2.741148        -1.602888
 C        -1.784335         1.652696        -2.474403
 O        -2.119777         0.421211        -1.921036
 C        -1.055323        -0.018818        -1.083472
 H         0.923101        -0.024202         0.277223
 H        -3.051603         0.317581         0.825998
 H        -2.011083         0.339031         2.167390
 H        -0.740194         2.542067         1.117306
 H        -2.436878         3.728187         0.330448
 H        -2.829242         3.601738        -2.158924
 H        -1.922657         1.782816        -3.633430
 H        -0.652810         1.684847        -2.494794
 H        -1.210643        -1.114489        -1.014146
 H        -0.075291        -0.025978        -1.730497
