19
Iteration:  3007
 O         0.264179         0.127517         0.934245
 C        -1.031174         0.544689         0.266495
 C        -2.258755         0.484302         1.078466
 C        -1.508903         1.901888         0.730133
 C        -2.056245         2.938004        -0.208640
 C        -2.207719         2.733630        -1.550204
 C        -1.932642         1.633529        -2.549645
 O        -2.220126         0.298511        -1.954323
 C        -0.975444        -0.022300        -1.127029
 H         0.782705         0.917088         0.712516
 H        -3.109575         0.108080         0.530635
 H        -2.224286         0.332281         2.123422
 H        -0.954032         2.286967         1.593611
 H        -2.155848         3.987460         0.133669
 H        -2.714028         3.510586        -2.142609
 H        -2.608497         1.721036        -3.450366
 H        -0.927918         1.679325        -3.022487
 H        -1.039269        -1.125298        -1.040373
 H         0.076475         0.119190        -1.567694
