19
Iteration:  1959charge 0 multiplicity 1
 O         0.275239         0.135460         0.943097
 C        -0.981991         0.464792         0.271140
 C        -2.167052         0.621472         1.139827
 C        -1.520102         1.836894         0.589975
 C        -2.202625         2.859099        -0.206613
 C        -2.239798         2.819745        -1.534720
 C        -1.906509         1.691389        -2.521522
 O        -2.079947         0.355322        -2.016932
 C        -1.099884        -0.169737        -1.085610
 H         0.800235         0.961981         0.959525
 H        -3.130964         0.420498         0.618169
 H        -2.076668         0.390441         2.200289
 H        -0.838664         2.173930         1.410191
 H        -2.383007         3.899389         0.207415
 H        -2.795529         3.671091        -2.095345
 H        -2.583221         1.641013        -3.429394
 H        -0.861323         1.792675        -2.899284
 H        -1.526659        -1.136416        -0.887858
 H        -0.126495        -0.232276        -1.513816
