19
Iteration:   626
 O         0.176145         0.125177         0.955676
 C        -1.021937         0.495614         0.246918
 C        -2.259947         0.588057         1.066571
 C        -1.479727         1.926922         0.688802
 C        -2.007484         2.962066        -0.208565
 C        -2.410344         2.771131        -1.517183
 C        -2.039674         1.592018        -2.464470
 O        -2.008677         0.243121        -1.983967
 C        -0.905707        -0.017508        -1.209856
 H         0.599439        -0.672825         0.558011
 H        -3.279434         0.584176         0.691580
 H        -2.210726         0.438393         2.155359
 H        -0.801141         2.225052         1.548774
 H        -2.175289         4.062226         0.199269
 H        -2.870704         3.657894        -2.023902
 H        -2.579158         1.679385        -3.382392
 H        -0.925371         1.916248        -2.566529
 H        -0.768772        -1.103071        -1.003397
 H         0.012231         0.419664        -1.730907
