19
Iteration:  3080
 O         0.189980        -0.083100         0.925677
 C        -0.886511         0.513374         0.316998
 C        -2.135438         0.665051         1.223276
 C        -1.403031         1.908158         0.601304
 C        -2.262924         2.783497        -0.288312
 C        -2.495743         2.740928        -1.643161
 C        -1.744218         1.815534        -2.510915
 O        -2.132194         0.396133        -1.945700
 C        -1.058493        -0.062932        -1.081399
 H         0.864260         0.332818         0.263335
 H        -3.112824         0.500890         0.815758
 H        -1.988176         0.461573         2.228331
 H        -0.985874         2.697175         1.328373
 H        -2.672299         3.635072         0.084318
 H        -3.107207         3.472453        -2.083765
 H        -1.772660         1.818587        -3.606403
 H        -0.679131         1.956204        -2.371785
 H        -1.281557        -1.079431        -0.859981
 H        -0.172351        -0.250863        -1.669140
