19
Iteration:   238charge 0 multiplicity 1
 O         0.010509         0.015857         0.926678
 C        -1.043703         0.545624         0.205318
 C        -2.144888         0.671557         1.166163
 C        -1.312323         1.884932         0.626015
 C        -2.142699         2.786161        -0.131749
 C        -2.441480         2.768937        -1.488258
 C        -1.959777         1.692300        -2.501166
 O        -1.923083         0.329241        -2.067548
 C        -0.933573         0.012017        -1.148209
 H         0.895477         0.525281         0.724461
 H        -3.129577         0.594634         0.743362
 H        -2.104208         0.153698         2.114267
 H        -0.639154         2.241516         1.493031
 H        -2.624442         3.561833         0.444051
 H        -3.352504         3.331694        -1.807813
 H        -2.752432         1.652682        -3.306584
 H        -1.038707         1.794459        -3.077674
 H        -0.765693        -1.086427        -1.071413
 H         0.038604         0.290944        -1.523017
