19
Iteration:  2165charge 0 multiplicity 1
 O         0.126871         0.050815         1.233375
 C        -0.917031         0.521763         0.321412
 C        -2.220312         0.425358         0.873533
 C        -1.463310         1.869874         0.671538
 C        -1.859892         2.869469        -0.335548
 C        -2.184958         2.836452        -1.662278
 C        -2.331583         1.563019        -2.512736
 O        -2.139945         0.334687        -1.848562
 C        -0.857496         0.185118        -1.207998
 H         1.052321         0.297055         0.877422
 H        -3.121667         0.359402         0.283192
 H        -2.328228         0.090522         1.857229
 H        -1.050289         2.296256         1.593999
 H        -1.952262         3.809188         0.238683
 H        -2.536593         3.798256        -2.199767
 H        -3.304477         1.302806        -3.068632
 H        -1.609677         1.578332        -3.272575
 H        -0.601589        -0.906717        -1.430787
 H        -0.139162         0.871967        -1.576858
