19
Iteration:   156
 O         0.293066         0.249018         1.094825
 C        -0.845648         0.396957         0.192688
 C        -2.315128         0.483718         0.831875
 C        -1.618640         1.668179         0.685671
 C        -1.954396         2.772817        -0.232993
 C        -2.177091         2.834114        -1.588448
 C        -2.249534         1.641273        -2.528884
 O        -2.175071         0.450278        -1.672237
 C        -0.790099         0.108229        -1.325264
 H         0.060983        -0.350033         1.874194
 H        -3.129534         0.422199         0.106793
 H        -2.440084        -0.071019         1.790667
 H        -1.060846         2.074485         1.555677
 H        -2.210244         3.772413         0.269165
 H        -2.196669         3.903637        -1.961203
 H        -3.205360         1.640192        -3.106069
 H        -1.328841         1.632991        -3.174780
 H        -0.659474        -0.944139        -1.508516
 H        -0.120353         0.793863        -1.793799
