19
Iteration:  3196
 O         0.154555        -0.001848         1.012173
 C        -0.930703         0.512987         0.254150
 C        -2.254721         0.560028         0.985746
 C        -1.540123         1.847870         0.608636
 C        -2.144644         2.841572        -0.268396
 C        -2.128882         2.805760        -1.597385
 C        -2.082739         1.597016        -2.543517
 O        -2.142565         0.407624        -1.691644
 C        -0.847426         0.060257        -1.234749
 H         0.955970         0.617685         0.945099
 H        -3.204498         0.129250         0.633062
 H        -2.014289         0.377630         2.028968
 H        -0.994338         2.161824         1.466006
 H        -2.351033         3.770048         0.291588
 H        -2.352742         3.660222        -2.132488
 H        -3.017219         1.611040        -3.179506
 H        -1.319964         1.710695        -3.294900
 H        -0.462069        -0.994077        -1.384776
 H        -0.101343         0.673888        -1.724718
