19
Iteration:  2247charge 0 multiplicity 1
 O         0.159311         0.102016         1.037757
 C        -0.991083         0.520702         0.307292
 C        -2.165021         0.628913         1.311053
 C        -1.433728         1.853919         0.714681
 C        -2.122171         2.809764        -0.273479
 C        -2.344123         2.786973        -1.631252
 C        -1.951967         1.674386        -2.585779
 O        -2.102182         0.313380        -2.098460
 C        -1.008848        -0.057755        -1.199630
 H         0.988159         0.609409         0.895422
 H        -3.211662         0.456154         0.872227
 H        -1.925226         0.304140         2.363651
 H        -0.693086         2.295497         1.440248
 H        -2.212988         3.807571         0.238098
 H        -2.856783         3.569617        -2.145478
 H        -2.525506         1.826648        -3.453697
 H        -0.956298         1.899096        -2.912772
 H        -1.148526        -1.119833        -1.140304
 H         0.008933         0.019521        -1.681654
