19
Iteration:  1790
 O         0.203090        -0.003225         1.101697
 C        -0.947589         0.498030         0.345890
 C        -2.242075         0.371169         0.944183
 C        -1.531414         1.902765         0.677399
 C        -1.904935         2.916633        -0.355522
 C        -2.212080         2.837583        -1.690268
 C        -2.217267         1.590976        -2.510635
 O        -2.154330         0.381017        -1.815073
 C        -0.858316         0.178806        -1.117126
 H         0.923552         0.309563         0.509849
 H        -3.069494         0.077247         0.304660
 H        -2.363504         0.135943         1.970106
 H        -1.122097         2.330452         1.619555
 H        -1.976051         3.944332         0.047337
 H        -2.645157         3.690672        -2.210762
 H        -3.193892         1.570385        -2.924403
 H        -1.460213         1.532450        -3.379976
 H        -0.635980        -0.988556        -1.192767
 H        -0.087792         0.720138        -1.622820
