19
Iteration:  2004
 O         0.250757         0.081073         0.950207
 C        -0.981492         0.554605         0.312188
 C        -2.304347         0.544396         1.045474
 C        -1.541723         1.872479         0.651407
 C        -2.004070         2.863699        -0.267090
 C        -2.213069         2.747037        -1.552356
 C        -1.965913         1.597364        -2.530622
 O        -2.137671         0.306841        -1.897886
 C        -1.009215         0.021212        -1.119601
 H         0.952821         0.672692         0.524497
 H        -3.225748         0.367007         0.580283
 H        -2.207688         0.352735         2.109202
 H        -0.968266         2.391965         1.465466
 H        -2.221502         3.885077         0.148649
 H        -2.827414         3.604127        -2.048946
 H        -2.867800         1.655008        -3.219746
 H        -1.023478         1.722502        -2.976878
 H        -0.798471        -1.004294        -1.212615
 H        -0.199220         0.649180        -1.455094
