19
Iteration:   624
 O         0.171955         0.139801         0.942409
 C        -1.024536         0.498426         0.226393
 C        -2.264582         0.590734         1.058112
 C        -1.477711         1.912147         0.695681
 C        -2.006627         2.963169        -0.192052
 C        -2.392084         2.765621        -1.512185
 C        -2.041034         1.567064        -2.483684
 O        -1.995034         0.245146        -1.953526
 C        -0.919931         0.000679        -1.210870
 H         0.515584        -0.641926         0.571361
 H        -3.285743         0.582208         0.699075
 H        -2.186898         0.436674         2.148975
 H        -0.823084         2.200169         1.520921
 H        -2.194872         4.007495         0.233033
 H        -2.781245         3.642856        -1.991815
 H        -2.550882         1.673339        -3.406489
 H        -0.977422         1.877960        -2.608008
 H        -0.834496        -1.089837        -1.066681
 H        -0.009834         0.497746        -1.678996
