19
Iteration:  1679charge 0 multiplicity 1
 O        -0.004430        -0.012186         1.130785
 C        -0.891004         0.546077         0.333486
 C        -2.335438         0.618523         0.894102
 C        -1.356839         1.868214         0.678261
 C        -1.792049         2.828675        -0.340258
 C        -2.306558         2.703330        -1.557938
 C        -2.436508         1.571351        -2.452959
 O        -1.933854         0.291982        -1.958175
 C        -0.781438         0.243772        -1.167699
 H         0.918109         0.066317         0.776863
 H        -3.073842         0.356184         0.164606
 H        -2.280303         0.156005         1.891663
 H        -1.089994         2.320644         1.639266
 H        -1.716074         3.882795         0.044034
 H        -2.841979         3.699472        -1.881232
 H        -3.425908         1.485002        -2.659439
 H        -1.955125         1.708362        -3.405819
 H        -0.373982        -0.847185        -1.143289
 H        -0.162148         1.049867        -1.605174
