19
Iteration:  4099charge 0 multiplicity 1
 O         0.052823        -0.113516         1.150435
 C        -0.933771         0.541144         0.274291
 C        -2.277747         0.623783         0.891289
 C        -1.487572         1.964188         0.725601
 C        -1.854160         2.937880        -0.250572
 C        -2.337605         2.765194        -1.544123
 C        -2.348351         1.533726        -2.481582
 O        -1.954045         0.280474        -1.960458
 C        -0.736215         0.171555        -1.235158
 H         0.952206         0.386040         1.009390
 H        -3.173087         0.549672         0.295169
 H        -2.307852         0.248738         1.898816
 H        -1.105217         2.407837         1.625346
 H        -2.028324         3.977072         0.135541
 H        -2.791002         3.580567        -2.047845
 H        -3.238596         1.131073        -2.975242
 H        -1.674090         1.775939        -3.261499
 H        -0.403050        -0.966769        -1.222982
 H         0.080160         0.701290        -1.824487
