19
Iteration:  2543charge 0 multiplicity 1
 O         0.110178        -0.039519         1.194840
 C        -0.828429         0.585219         0.303698
 C        -2.188466         0.563255         0.947100
 C        -1.534570         1.883807         0.658906
 C        -1.964161         2.912565        -0.317982
 C        -2.242855         2.794398        -1.627613
 C        -2.385093         1.591750        -2.489302
 O        -2.079900         0.275820        -1.920481
 C        -0.803557         0.122723        -1.161714
 H         0.995734         0.115730         0.954822
 H        -2.806894         0.353610         0.142045
 H        -2.190388         0.221398         1.916787
 H        -1.280904         2.421385         1.473987
 H        -1.927841         3.866557         0.164805
 H        -2.303658         3.625276        -2.310099
 H        -3.347022         1.492612        -2.930874
 H        -1.592539         1.797663        -3.304531
 H        -0.575194        -0.925576        -1.313374
 H         0.090081         0.720120        -1.706558
