19
Iteration:  4347
 O         0.037898        -0.061550         1.054286
 C        -0.920599         0.508868         0.230019
 C        -2.200848         0.760578         0.966689
 C        -1.351460         1.910658         0.562208
 C        -2.090795         2.939072        -0.253670
 C        -2.515353         2.702604        -1.464673
 C        -1.997217         1.659905        -2.416505
 O        -1.986825         0.313552        -1.955390
 C        -0.853237        -0.015237        -1.147213
 H         0.851382         0.144540         0.615073
 H        -3.084391         0.565368         0.397304
 H        -2.284671         0.546688         2.020219
 H        -0.773817         2.319018         1.340181
 H        -2.664723         3.664495         0.490621
 H        -3.157417         3.404588        -1.845445
 H        -2.471614         1.578056        -3.389389
 H        -0.998436         1.897179        -2.825570
 H        -1.008081        -1.014561        -1.169739
 H         0.113087         0.182451        -1.712450
