19
Iteration:  3957charge 0 multiplicity 1
 O         0.105578        -0.018182         1.047945
 C        -0.948012         0.444993         0.302383
 C        -2.221619         0.706461         1.044008
 C        -1.347025         1.891315         0.671052
 C        -2.065770         2.845160        -0.273847
 C        -2.523328         2.804820        -1.596333
 C        -1.966562         1.704104        -2.476631
 O        -2.048441         0.308681        -1.961649
 C        -0.920393        -0.029774        -1.186643
 H         0.956816         0.458221         0.668936
 H        -3.100263         0.626522         0.405737
 H        -2.285690         0.274616         2.027944
 H        -0.736022         2.346895         1.525872
 H        -2.565667         3.788208         0.348408
 H        -3.157058         3.608666        -2.020818
 H        -2.408866         1.614116        -3.507984
 H        -0.832626         1.990604        -2.524255
 H        -0.778956        -1.130906        -1.167456
 H         0.086504         0.283898        -1.720597
