19
Iteration:  2192charge 0 multiplicity 1
 O         0.208437         0.016042         1.011472
 C        -0.940621         0.494208         0.298656
 C        -2.325749         0.601015         0.867459
 C        -1.567592         1.867065         0.661092
 C        -1.871737         2.878658        -0.338392
 C        -2.354995         2.793184        -1.593528
 C        -2.145421         1.577229        -2.440684
 O        -2.114677         0.336128        -1.800742
 C        -0.826009         0.063380        -1.123164
 H         1.025517         0.559483         0.730643
 H        -3.296685         0.362733         0.387405
 H        -2.270936         0.377331         1.990078
 H        -1.259212         2.224127         1.659290
 H        -1.921336         3.839003         0.194505
 H        -2.514125         3.650658        -2.180063
 H        -2.887828         1.442761        -3.154724
 H        -1.113820         1.763499        -2.901269
 H        -0.674692        -0.979177        -1.247365
 H        -0.020365         0.741810        -1.600092
