19
Iteration:   130charge 0 multiplicity 1
 O         0.277024         0.106676         1.020695
 C        -0.896645         0.527729         0.345915
 C        -2.188696         0.216355         0.878796
 C        -1.644595         1.797692         0.623537
 C        -1.867419         2.943574        -0.327331
 C        -2.203734         2.888534        -1.574141
 C        -2.284159         1.672076        -2.458531
 O        -2.098677         0.337820        -1.903882
 C        -0.917272         0.180475        -1.118151
 H         0.033784        -0.298194         1.915938
 H        -2.845830        -0.203750         0.132487
 H        -2.417817         0.246600         1.912058
 H        -1.451101         2.155584         1.633526
 H        -1.900432         3.914045         0.160461
 H        -2.411718         3.811925        -2.053363
 H        -3.313501         1.711341        -2.791636
 H        -1.570795         1.812257        -3.374873
 H        -0.667203        -0.894287        -1.061040
 H        -0.084340         0.836775        -1.564986
