19
Iteration:  4816charge 0 multiplicity 1
 O         0.192461         0.015522         0.970905
 C        -0.973201         0.478710         0.256782
 C        -2.262815         0.448120         0.916370
 C        -1.615671         1.842542         0.733462
 C        -1.981090         2.906198        -0.282873
 C        -2.063145         2.809015        -1.655948
 C        -2.202361         1.546301        -2.506309
 O        -2.082560         0.356920        -1.759288
 C        -0.903398         0.213681        -1.101376
 H         0.764850         0.849129         1.086811
 H        -3.073343         0.236001         0.278938
 H        -2.270132         0.051356         1.904178
 H        -1.358235         2.254255         1.668945
 H        -1.824450         3.939635         0.078986
 H        -2.525757         3.744043        -2.089693
 H        -3.174014         1.446680        -3.109363
 H        -1.505323         1.569711        -3.292746
 H        -0.546905        -0.805096        -1.438827
 H        -0.039166         0.734256        -1.564507
