19
Iteration:  3402charge 0 multiplicity 1
 O         0.341806         0.110000         0.967696
 C        -1.011874         0.531887         0.317368
 C        -2.322360         0.497218         1.085212
 C        -1.511585         1.829036         0.720506
 C        -2.041596         2.943493        -0.252587
 C        -2.250628         2.751718        -1.561909
 C        -1.937006         1.599948        -2.519595
 O        -2.143813         0.383987        -1.964554
 C        -1.057920         0.010466        -1.142302
 H         1.024964         0.846980         0.664246
 H        -3.093212         0.254173         0.336082
 H        -2.444463        -0.039763         1.996761
 H        -1.043350         2.089633         1.708507
 H        -2.101251         3.936854         0.163574
 H        -2.735867         3.495101        -2.154953
 H        -2.694188         1.627490        -3.343166
 H        -1.005529         1.742726        -3.114420
 H        -1.169938        -1.083830        -1.171686
 H        -0.123524         0.184124        -1.667988
