19
Iteration:  4383charge 0 multiplicity 1
 O         0.142448         0.017982         1.087901
 C        -0.949971         0.496299         0.309157
 C        -2.214805         0.605087         1.077372
 C        -1.536262         1.848988         0.686080
 C        -1.984783         2.873170        -0.248395
 C        -2.281154         2.755813        -1.555370
 C        -2.152157         1.609074        -2.583052
 O        -2.042754         0.333335        -1.975596
 C        -0.907462         0.080283        -1.248840
 H         0.834783         0.661713         0.996777
 H        -3.108619         0.293782         0.454516
 H        -2.170824         0.242813         2.129406
 H        -0.979055         2.285665         1.542352
 H        -2.265978         3.866064         0.253989
 H        -2.525464         3.685308        -2.200455
 H        -3.038706         1.612848        -3.247936
 H        -1.135513         1.817150        -2.990005
 H        -0.740384        -0.915809        -1.087817
 H         0.036173         0.518043        -1.667391
