19
Iteration:  1015charge 0 multiplicity 1
 O         0.187178        -0.001039         1.063510
 C        -0.872329         0.598918         0.293395
 C        -2.215863         0.570118         1.002309
 C        -1.498691         1.929448         0.667172
 C        -2.042669         2.932542        -0.189293
 C        -2.279218         2.845190        -1.547831
 C        -2.095172         1.612447        -2.530597
 O        -2.107518         0.260643        -1.964942
 C        -0.975612        -0.002535        -1.199374
 H         0.974898         0.005534         0.526456
 H        -3.038462         0.072976         0.477058
 H        -2.053593         0.391179         2.028834
 H        -1.136279         2.190426         1.694067
 H        -2.233747         3.991669         0.109744
 H        -2.818538         3.665932        -2.076884
 H        -2.870263         1.607959        -3.245838
 H        -1.144490         1.735744        -3.115906
 H        -0.909210        -1.106260        -0.943869
 H        -0.106439         0.377482        -1.753184
