19
Iteration:  3618
 O         0.136099         0.151512         1.102804
 C        -0.904869         0.559814         0.307476
 C        -2.237339         0.413095         0.902751
 C        -1.553944         1.827594         0.719770
 C        -1.899726         2.840033        -0.281599
 C        -2.132365         2.750659        -1.576358
 C        -2.272065         1.631741        -2.482049
 O        -2.152604         0.320458        -1.910028
 C        -0.863240         0.078208        -1.204479
 H         0.977364         0.713698         1.003266
 H        -3.091694         0.330986         0.247153
 H        -2.388724         0.234320         1.977985
 H        -1.212519         2.215748         1.606414
 H        -1.725357         3.840802         0.173914
 H        -2.308149         3.608362        -2.180653
 H        -3.187027         1.745813        -3.080170
 H        -1.503732         1.787245        -3.347927
 H        -0.722866        -0.966029        -1.113924
 H        -0.029284         0.638233        -1.766986
