19
Iteration:  2000
 O         0.231263         0.094833         0.943577
 C        -0.987033         0.561433         0.249960
 C        -2.247000         0.550905         1.065628
 C        -1.559331         1.861090         0.657568
 C        -2.026228         2.904368        -0.233342
 C        -2.171025         2.741849        -1.543915
 C        -1.975508         1.589143        -2.550742
 O        -2.135500         0.293768        -1.904684
 C        -1.035729         0.010128        -1.117280
 H         0.876069         0.724078         0.667020
 H        -3.269034         0.303024         0.606800
 H        -2.220819         0.436603         2.170331
 H        -1.062343         2.357107         1.492234
 H        -2.189321         3.882013         0.232740
 H        -2.891827         3.480177        -1.991982
 H        -2.730746         1.722386        -3.235628
 H        -0.936409         1.703918        -2.966303
 H        -0.774032        -1.137898        -1.145317
 H        -0.127525         0.597732        -1.564620
