19
Iteration:  1393
 O         0.200036         0.029035         1.132476
 C        -0.868247         0.493894         0.306228
 C        -2.214239         0.496702         1.019402
 C        -1.523044         1.790830         0.653397
 C        -2.029405         2.865869        -0.361979
 C        -2.158095         2.815073        -1.659280
 C        -2.175166         1.610376        -2.482311
 O        -2.173261         0.398692        -1.852838
 C        -0.923696         0.110721        -1.203186
 H         0.991497         0.562604         0.776002
 H        -3.034003         0.151121         0.387456
 H        -2.294202         0.236809         2.072680
 H        -1.169630         2.273619         1.592352
 H        -2.154162         3.892748         0.084780
 H        -2.370508         3.630056        -2.250877
 H        -3.114022         1.819236        -3.056515
 H        -1.372132         1.647393        -3.198413
 H        -0.927148        -0.983830        -1.223444
 H        -0.096932         0.640752        -1.694384
