19
Iteration:  1401charge 0 multiplicity 1
 O         0.194653        -0.030702         1.121331
 C        -0.862194         0.498819         0.298169
 C        -2.181157         0.514396         1.026506
 C        -1.545305         1.839243         0.616101
 C        -2.083200         2.858748        -0.306121
 C        -2.161113         2.883001        -1.684753
 C        -2.104267         1.633674        -2.517021
 O        -2.202013         0.320439        -1.838495
 C        -0.958092         0.122599        -1.172719
 H         1.079844         0.454545         0.923038
 H        -3.026945         0.148120         0.457267
 H        -2.135177         0.571076         2.067513
 H        -0.991734         2.344852         1.449265
 H        -2.361761         3.758461         0.334457
 H        -2.481971         3.784864        -2.227779
 H        -3.012174         1.570673        -3.068141
 H        -1.240549         1.811215        -3.294942
 H        -0.632815        -0.968579        -1.290004
 H        -0.155189         0.595496        -1.767501
