19
Iteration:  2038charge 0 multiplicity 1
 O         0.176427        -0.053890         1.119010
 C        -0.878957         0.514873         0.348528
 C        -2.242547         0.531504         0.966831
 C        -1.550570         1.914383         0.614204
 C        -2.014545         2.885593        -0.337252
 C        -2.324510         2.810689        -1.645435
 C        -2.204810         1.624475        -2.560138
 O        -2.044594         0.414946        -1.812138
 C        -0.829746         0.052170        -1.128231
 H         1.020146        -0.055755         0.667934
 H        -3.115619         0.279358         0.413531
 H        -2.189204         0.304687         2.002250
 H        -1.007050         2.317106         1.462574
 H        -1.971836         3.908775         0.047466
 H        -2.707335         3.757947        -2.031050
 H        -3.199341         1.347770        -3.089978
 H        -1.590677         1.687510        -3.385071
 H        -0.645062        -0.970680        -1.264833
 H         0.029718         0.562075        -1.601455
