19
Iteration:   376charge 0 multiplicity 1
 O         0.347604         0.273234         0.964232
 C        -0.953042         0.494090         0.352705
 C        -2.319627         0.493830         1.111900
 C        -1.567745         1.748848         0.765556
 C        -2.115139         2.782845        -0.257943
 C        -2.203530         2.898424        -1.603742
 C        -2.037516         1.653094        -2.592607
 O        -2.058792         0.377054        -1.984226
 C        -1.042779        -0.068595        -1.119380
 H         0.889941        -0.094696         0.305896
 H        -3.130466         0.139617         0.478649
 H        -2.522020         0.134645         2.136166
 H        -1.075058         2.213750         1.564150
 H        -2.213609         3.776524         0.189813
 H        -2.381403         3.858870        -2.003871
 H        -2.922565         1.738961        -3.230424
 H        -1.092670         1.783662        -3.181949
 H        -1.126087        -1.138723        -1.023003
 H         0.013963         0.081093        -1.567969
