19
Iteration:  2331
 O         0.219267         0.136982         0.980485
 C        -0.955690         0.512295         0.220159
 C        -2.182597         0.620496         1.118520
 C        -1.450961         1.883914         0.568210
 C        -2.110357         2.877880        -0.283700
 C        -2.469851         2.754753        -1.568235
 C        -1.776096         1.745973        -2.434138
 O        -2.112173         0.333246        -1.927515
 C        -1.098358        -0.196256        -1.162372
 H         0.926187         0.693254         0.652633
 H        -3.161614         0.315924         0.633691
 H        -2.056877         0.345988         2.176348
 H        -0.771046         2.230210         1.383053
 H        -2.622659         3.645266         0.297994
 H        -3.020285         3.562168        -2.010618
 H        -2.027937         1.709222        -3.526712
 H        -0.682360         1.822598        -2.176000
 H        -1.483266        -1.211158        -0.916670
 H        -0.104858        -0.103345        -1.644530
