19
Iteration:  1486charge 0 multiplicity 1
 O         0.071970         0.072771         1.014938
 C        -0.970071         0.524153         0.154283
 C        -2.097872         0.778219         1.126569
 C        -1.382204         1.949704         0.563377
 C        -2.220322         2.857684        -0.145511
 C        -2.436978         2.688497        -1.478007
 C        -1.824867         1.704184        -2.406298
 O        -2.049913         0.343585        -2.058042
 C        -1.031555        -0.232211        -1.192816
 H         0.884191         0.252047         0.599871
 H        -3.134674         0.535289         0.856162
 H        -1.772609         0.398845         2.077240
 H        -0.653697         2.328129         1.323981
 H        -2.487683         3.784766         0.378274
 H        -2.885092         3.498059        -2.169830
 H        -2.264108         1.741589        -3.457221
 H        -0.777577         1.893093        -2.533631
 H        -1.440684        -1.221281        -0.885112
 H        -0.076748        -0.193409        -1.739685
