19
Iteration:    92charge 0 multiplicity 1
 O         0.238732         0.045431         0.874339
 C        -1.017651         0.424168         0.316082
 C        -2.307348         0.625922         1.060685
 C        -1.551670         1.847056         0.767320
 C        -2.106040         2.813789        -0.159970
 C        -2.173052         2.707950        -1.494709
 C        -2.276245         1.619249        -2.488520
 O        -1.920819         0.311314        -2.054175
 C        -0.789567         0.252278        -1.196366
 H         0.029724        -0.597963         1.512172
 H        -3.231368         0.679882         0.447049
 H        -2.581549         0.204595         2.058676
 H        -0.870614         2.250236         1.545706
 H        -2.040033         3.901224         0.153809
 H        -1.993954         3.648258        -2.146160
 H        -3.361280         1.438944        -2.738934
 H        -1.763954         1.862609        -3.407933
 H        -0.347430        -0.719635        -1.507701
 H        -0.073606         1.054725        -1.475971
