19
Iteration:  4220
 O         0.280661         0.301164         0.901004
 C        -0.976698         0.526871         0.253012
 C        -2.240557         0.402739         1.104756
 C        -1.608684         1.826662         0.629230
 C        -2.165925         2.838282        -0.223792
 C        -2.137858         2.883300        -1.624985
 C        -1.766775         1.658057        -2.480414
 O        -2.215779         0.375163        -1.853385
 C        -1.092284        -0.149912        -1.077042
 H         0.842222         0.747353         0.317875
 H        -3.088724         0.104529         0.494261
 H        -2.088917         0.066490         2.146530
 H        -1.061330         2.308155         1.403779
 H        -2.415723         3.751038         0.158245
 H        -2.459229         3.703782        -2.193222
 H        -2.377637         1.661790        -3.381244
 H        -0.733428         1.445465        -2.758015
 H        -1.351023        -1.270025        -0.976972
 H        -0.257783        -0.241142        -1.714689
