19
Iteration:  1883
 O         0.159068         0.020197         0.955100
 C        -0.953742         0.461702         0.281206
 C        -2.157695         0.687301         1.133390
 C        -1.430698         1.950636         0.619423
 C        -2.192069         2.867439        -0.204643
 C        -2.412143         2.868284        -1.548115
 C        -1.873780         1.685451        -2.530145
 O        -2.032036         0.334493        -2.008772
 C        -1.031434        -0.154835        -1.104728
 H         0.997956         0.393377         0.579004
 H        -3.109518         0.388310         0.625181
 H        -1.969156         0.370292         2.154556
 H        -0.651065         2.384706         1.275878
 H        -2.730001         3.659151         0.380225
 H        -3.170930         3.559561        -2.107485
 H        -2.570060         1.540230        -3.445776
 H        -0.723012         1.808413        -2.710069
 H        -1.349629        -1.142483        -0.872940
 H         0.045379        -0.106517        -1.556182
