19
Iteration:  2648charge 0 multiplicity 1
 O         0.200318         0.143847         0.922216
 C        -1.023081         0.444526         0.295697
 C        -2.129444         0.667798         1.245601
 C        -1.532564         1.914430         0.671743
 C        -2.233939         2.817358        -0.255307
 C        -2.259541         2.821949        -1.608773
 C        -1.933965         1.683534        -2.480652
 O        -1.995335         0.347201        -1.990445
 C        -1.039866        -0.178344        -1.154592
 H         0.859025        -0.079251         0.246917
 H        -3.112250         0.406108         0.813992
 H        -2.049235         0.347833         2.294864
 H        -0.773563         2.546575         1.240963
 H        -2.699978         3.696596         0.156306
 H        -2.696247         3.663030        -2.093081
 H        -2.597108         1.775456        -3.367257
 H        -0.939928         1.918701        -2.831721
 H        -1.224639        -1.265203        -1.167466
 H        -0.031834         0.001134        -1.542342
