19
Iteration:  4114
 O        -0.027039        -0.076932         1.107080
 C        -0.935000         0.529907         0.243690
 C        -2.302750         0.705677         0.966707
 C        -1.367523         1.869298         0.599442
 C        -1.929559         2.957703        -0.258981
 C        -2.428838         2.682006        -1.497940
 C        -2.253758         1.557764        -2.449067
 O        -1.917230         0.233510        -1.966987
 C        -0.704225         0.193704        -1.192658
 H         0.843298         0.098562         0.825266
 H        -3.284621         0.533614         0.477088
 H        -2.295296         0.484533         2.060069
 H        -0.825248         2.201125         1.497785
 H        -1.954987         3.945859         0.098619
 H        -2.921455         3.547527        -1.969199
 H        -3.221716         1.664683        -2.938119
 H        -1.537616         1.895938        -3.164859
 H        -0.466485        -0.781992        -1.295870
 H         0.017882         0.859815        -1.541495
