19
Iteration:  4506
 O         0.037035        -0.126638         0.992786
 C        -0.979783         0.473665         0.311819
 C        -2.248252         0.642489         1.056004
 C        -1.441495         1.924003         0.689914
 C        -2.019595         2.949201        -0.312317
 C        -2.324348         2.743566        -1.565118
 C        -2.214596         1.588645        -2.462775
 O        -1.919837         0.291393        -1.942374
 C        -0.767206         0.158092        -1.188544
 H         0.710991         0.481620         1.097302
 H        -3.134264         0.651511         0.476291
 H        -2.354069         0.318554         2.050542
 H        -0.939356         2.418395         1.519715
 H        -2.092316         3.989205        -0.079197
 H        -2.726472         3.605539        -2.103641
 H        -3.285214         1.425609        -2.825233
 H        -1.674857         1.847964        -3.424330
 H        -0.450092        -0.866670        -1.183986
 H         0.201022         0.643535        -1.458227
