19
Iteration:  1017charge 0 multiplicity 1
 O         0.202140        -0.009947         1.072152
 C        -0.887192         0.572025         0.291675
 C        -2.224534         0.593043         1.021249
 C        -1.463578         1.939037         0.666581
 C        -2.062950         2.929512        -0.194139
 C        -2.295382         2.854079        -1.541623
 C        -2.078750         1.614134        -2.539186
 O        -2.114898         0.265587        -1.972407
 C        -0.964343        -0.009934        -1.202237
 H         1.053726         0.005512         0.513258
 H        -3.025975         0.114147         0.455328
 H        -2.149383         0.354832         2.060460
 H        -1.184926         2.210183         1.672001
 H        -2.275412         3.951819         0.088592
 H        -2.834542         3.620678        -2.052748
 H        -2.865609         1.637245        -3.316275
 H        -1.158766         1.728739        -3.117822
 H        -0.889532        -1.095960        -0.943643
 H        -0.159708         0.399662        -1.755283
