19
Iteration:  2337charge 0 multiplicity 1
 O         0.222777         0.164395         0.976651
 C        -0.986974         0.403055         0.246345
 C        -2.196921         0.663482         1.114444
 C        -1.402561         1.882064         0.603887
 C        -2.136283         2.813396        -0.278871
 C        -2.449777         2.751774        -1.579075
 C        -1.810928         1.765348        -2.437512
 O        -2.092891         0.326572        -1.945266
 C        -1.113856        -0.135553        -1.152130
 H         0.729608         0.867698         0.546540
 H        -3.132915         0.401280         0.686228
 H        -1.994475         0.348742         2.126525
 H        -0.770974         2.211878         1.402637
 H        -2.535126         3.784755         0.098822
 H        -2.922892         3.694048        -1.917622
 H        -2.007268         1.670684        -3.497294
 H        -0.743094         1.831992        -2.300878
 H        -1.276871        -1.222515        -1.029848
 H        -0.076303        -0.246421        -1.602108
