19
Iteration:  3384charge 0 multiplicity 1
 O         0.189941         0.059258         0.972418
 C        -0.913202         0.583557         0.307066
 C        -2.220417         0.551723         0.907331
 C        -1.550915         1.887910         0.772264
 C        -2.002307         2.846670        -0.223018
 C        -2.190095         2.783860        -1.566063
 C        -2.120824         1.618615        -2.529102
 O        -2.136672         0.281016        -1.930626
 C        -0.928735         0.034830        -1.118285
 H         1.022982         0.647935         0.836900
 H        -3.101577         0.359321         0.302865
 H        -2.424673         0.298545         1.926643
 H        -1.181605         2.315675         1.748023
 H        -2.372165         3.736522         0.256589
 H        -2.501816         3.779112        -1.822717
 H        -2.901060         1.751355        -3.361108
 H        -1.216267         1.663074        -3.170356
 H        -0.833886        -1.074067        -1.007765
 H        -0.039390         0.307201        -1.755746
