19
Iteration:  4078
 O         0.126545        -0.052009         1.107395
 C        -0.871422         0.592721         0.345768
 C        -2.255630         0.514365         0.824792
 C        -1.518641         1.849865         0.690952
 C        -1.986977         2.895913        -0.268800
 C        -2.139664         2.781676        -1.645766
 C        -2.384324         1.593387        -2.465427
 O        -2.045489         0.289171        -1.903164
 C        -0.804930         0.207829        -1.122982
 H         0.852969         0.501670         1.258475
 H        -2.980957         0.464213         0.028925
 H        -2.502687         0.134888         1.799178
 H        -1.180162         2.206181         1.640403
 H        -1.782618         3.959501        -0.023164
 H        -2.255281         3.648825        -2.169762
 H        -3.456557         1.431133        -2.737357
 H        -1.873857         1.647668        -3.382672
 H        -0.377931        -0.843276        -1.142627
 H        -0.015281         0.738292        -1.612734
