19
Iteration:  2020charge 0 multiplicity 1
 O         0.232686         0.052404         0.995351
 C        -0.964934         0.432000         0.349268
 C        -2.283238         0.597437         1.070525
 C        -1.460626         1.825654         0.735918
 C        -2.014770         2.848079        -0.352766
 C        -2.327225         2.819328        -1.678275
 C        -2.157260         1.604253        -2.529496
 O        -2.081256         0.365503        -1.848167
 C        -0.878679         0.114521        -1.108330
 H         0.882077         0.276420         0.336755
 H        -3.047464         0.351085         0.249545
 H        -2.671627         0.259696         2.052165
 H        -1.096238         2.277941         1.633785
 H        -2.178301         3.754084         0.191008
 H        -2.409989         3.709138        -2.227026
 H        -2.849426         1.555314        -3.415578
 H        -1.045174         1.744632        -3.044542
 H        -0.790484        -1.038057        -1.042982
 H         0.008426         0.447316        -1.697845
