19
Iteration:  1881
 O         0.161114         0.024018         0.959018
 C        -0.968296         0.471906         0.286543
 C        -2.153079         0.685782         1.134665
 C        -1.412604         1.935219         0.617780
 C        -2.181637         2.876594        -0.216322
 C        -2.434905         2.845104        -1.536668
 C        -1.878962         1.672464        -2.541729
 O        -2.024176         0.344398        -2.010108
 C        -1.043490        -0.146634        -1.103924
 H         1.011672         0.459996         0.585754
 H        -3.075106         0.373150         0.556576
 H        -2.034000         0.384444         2.215616
 H        -0.670209         2.342039         1.299617
 H        -2.705388         3.668742         0.383280
 H        -3.061490         3.617771        -2.054059
 H        -2.510706         1.569979        -3.426784
 H        -0.746463         1.865821        -2.751479
 H        -1.327943        -1.216455        -0.952531
 H        -0.012484        -0.123979        -1.502564
