19
Iteration:   170
 O         0.162747         0.240773         0.980851
 C        -0.955792         0.468680         0.230979
 C        -2.270660         0.389847         0.920175
 C        -1.499590         1.751861         0.662642
 C        -2.006702         2.770088        -0.273480
 C        -2.172127         2.807275        -1.561794
 C        -2.132976         1.639210        -2.471801
 O        -2.093810         0.458104        -1.730698
 C        -0.836351         0.134669        -1.238635
 H         0.121795        -0.644008         1.309872
 H        -3.162657         0.216148         0.311320
 H        -2.335111         0.183453         2.000473
 H        -0.980303         2.128030         1.510901
 H        -2.164639         3.668662         0.290550
 H        -2.642427         3.684642        -1.984297
 H        -3.155105         1.579731        -2.944485
 H        -1.509190         1.656741        -3.326231
 H        -0.562726        -0.930099        -1.431661
 H        -0.030966         0.666573        -1.728900
