19
Iteration:  2735
 O         0.205587         0.084624         0.874227
 C        -0.993110         0.511773         0.301660
 C        -2.225277         0.623353         1.215925
 C        -1.414923         1.892033         0.609417
 C        -2.121718         2.924584        -0.220786
 C        -2.463272         2.761289        -1.588425
 C        -1.835907         1.734146        -2.502386
 O        -2.056699         0.252068        -2.009642
 C        -1.090489        -0.131525        -1.100843
 H         0.867445         0.851975         0.934812
 H        -3.186324         0.631868         0.727681
 H        -2.130179         0.208722         2.177878
 H        -0.774035         2.382324         1.398796
 H        -2.551663         3.719360         0.371298
 H        -2.762023         3.594987        -2.139046
 H        -2.166802         1.726300        -3.580230
 H        -0.625300         1.825151        -2.501540
 H        -1.116108        -1.238361        -1.021674
 H        -0.022163         0.038055        -1.560414
