19
Iteration:  2699
 O         0.184511         0.016490         0.922513
 C        -0.889868         0.565644         0.193228
 C        -2.122857         0.691466         1.071809
 C        -1.406520         1.955434         0.608623
 C        -2.323070         2.893752        -0.224770
 C        -2.454887         2.704141        -1.556243
 C        -1.687854         1.689435        -2.457970
 O        -2.133324         0.389880        -1.930014
 C        -1.077214        -0.215092        -1.083747
 H         1.075623         0.472212         0.704344
 H        -3.162883         0.591024         0.596437
 H        -2.039120         0.223216         2.128255
 H        -0.725502         2.541176         1.366009
 H        -3.001218         3.587611         0.372311
 H        -3.007352         3.490173        -2.139728
 H        -2.113269         1.801587        -3.446555
 H        -0.519550         1.777878        -2.465779
 H        -1.467302        -1.211990        -0.732186
 H        -0.129539        -0.270626        -1.656121
