19
Iteration:  4735charge 0 multiplicity 1
 O         0.069220        -0.147042         1.090076
 C        -0.937261         0.430408         0.277363
 C        -2.161740         0.754089         0.968028
 C        -1.348443         1.958023         0.612442
 C        -2.112853         2.930148        -0.264120
 C        -2.535459         2.757109        -1.526687
 C        -2.053461         1.678357        -2.447359
 O        -1.955380         0.332716        -1.976762
 C        -0.861380        -0.011037        -1.181814
 H         0.990945         0.258305         0.814258
 H        -3.128000         0.577107         0.388893
 H        -2.173366         0.424496         2.055635
 H        -0.768152         2.523705         1.391293
 H        -2.640289         3.745626         0.287054
 H        -3.196285         3.506071        -1.964646
 H        -2.861231         1.516950        -3.165730
 H        -1.131216         1.988032        -2.875199
 H        -0.780112        -1.049231        -1.226841
 H         0.178948         0.484389        -1.548045
