19
Iteration:  1241charge 0 multiplicity 1
 O        -0.008466        -0.036279         1.036489
 C        -0.890101         0.619553         0.183635
 C        -2.185909         0.683587         0.974612
 C        -1.419463         1.988415         0.784939
 C        -1.985477         2.873543        -0.240340
 C        -2.393263         2.790254        -1.528526
 C        -2.169990         1.628553        -2.538164
 O        -2.016189         0.230595        -1.912897
 C        -0.794197        -0.053334        -1.196145
 H         0.976197         0.167033         0.777007
 H        -3.187106         0.577188         0.651371
 H        -2.109295         0.283659         1.984744
 H        -0.794402         2.517967         1.590307
 H        -2.269695         3.949915         0.026235
 H        -2.990168         3.562920        -1.909729
 H        -3.078199         1.346901        -3.180301
 H        -1.336138         2.013050        -3.175968
 H        -0.741823        -1.091866        -1.023854
 H         0.168346         0.112618        -1.771993
