19
Iteration:  1971charge 0 multiplicity 1
 O         0.261775         0.135413         0.958209
 C        -1.002060         0.584332         0.176038
 C        -2.186551         0.533683         1.126710
 C        -1.506951         1.914448         0.715674
 C        -2.176740         2.849038        -0.241339
 C        -2.221831         2.807943        -1.597791
 C        -1.936530         1.673456        -2.442057
 O        -2.081504         0.300820        -2.003732
 C        -1.126424        -0.222737        -1.127472
 H         0.809528         0.982105         1.113277
 H        -3.205541         0.571694         0.803891
 H        -2.035448        -0.002061         2.057675
 H        -0.846415         2.606364         1.332321
 H        -2.258653         3.851631         0.314566
 H        -2.349476         3.844182        -2.135674
 H        -2.695538         1.828836        -3.348593
 H        -0.918154         1.868322        -2.900956
 H        -1.130968        -1.253906        -1.000053
 H        -0.186990        -0.045662        -1.606975
