19
Iteration:  1432charge 0 multiplicity 1
 O         0.115801        -0.089148         0.935071
 C        -0.976571         0.521119         0.295762
 C        -2.169554         0.673820         1.122460
 C        -1.438441         1.917905         0.691052
 C        -2.115273         2.861703        -0.326173
 C        -2.405282         2.732293        -1.608110
 C        -1.985327         1.654750        -2.449150
 O        -2.016232         0.411846        -1.896890
 C        -0.931531         0.009867        -1.168398
 H         0.934822         0.302277         0.770537
 H        -3.193541         0.517914         0.765823
 H        -2.189223         0.444289         2.183543
 H        -0.691072         2.349959         1.384058
 H        -2.430310         3.797526         0.187621
 H        -2.889852         3.533003        -2.280375
 H        -2.680344         1.366904        -3.235338
 H        -0.965262         1.857887        -3.010660
 H        -1.023774        -1.110061        -1.059130
 H        -0.018048         0.237865        -1.781839
