19
Iteration:  4978charge 0 multiplicity 1
 O         0.115302         0.009734         1.135886
 C        -0.878964         0.464585         0.279975
 C        -2.164239         0.585202         1.020778
 C        -1.425376         1.863780         0.558983
 C        -2.173846         2.867452        -0.226169
 C        -2.371099         2.870215        -1.570201
 C        -2.033296         1.714890        -2.574727
 O        -2.075940         0.370691        -1.939470
 C        -0.878586        -0.047365        -1.159699
 H         1.018787         0.062449         0.814789
 H        -2.988348         0.212306         0.444637
 H        -2.088273         0.383512         2.054276
 H        -0.990660         2.212798         1.439984
 H        -2.657074         3.668734         0.366428
 H        -2.915682         3.851725        -1.917471
 H        -2.818827         1.713070        -3.313229
 H        -1.112804         1.883787        -3.008139
 H        -0.872597        -1.116923        -1.175425
 H         0.083803         0.137730        -1.570444
