19
Iteration:  4204charge 0 multiplicity 1
 O         0.255704         0.246610         0.924727
 C        -0.974963         0.415444         0.283760
 C        -2.224233         0.544823         1.064413
 C        -1.591184         1.790886         0.579660
 C        -2.121084         2.869727        -0.295561
 C        -2.165021         2.797086        -1.606114
 C        -1.901344         1.651094        -2.396443
 O        -2.128251         0.398841        -1.854844
 C        -1.080674        -0.140091        -1.145837
 H         0.986826         0.721065         0.539255
 H        -3.148239         0.143705         0.632017
 H        -2.226987         0.498839         2.134920
 H        -1.040020         2.194793         1.490314
 H        -2.602562         3.768969         0.367704
 H        -2.672207         3.709705        -2.121682
 H        -2.370770         1.645969        -3.420396
 H        -0.837683         1.720088        -2.691128
 H        -1.157475        -1.179060        -1.097692
 H        -0.084873         0.223017        -1.535684
