19
Iteration:  1746charge 0 multiplicity 1
 O         0.123592         0.060182         1.110415
 C        -0.943663         0.496649         0.252183
 C        -2.294832         0.513527         0.900209
 C        -1.523280         1.834275         0.761953
 C        -1.852413         2.854187        -0.291470
 C        -2.109405         2.736218        -1.657740
 C        -2.425293         1.558646        -2.471363
 O        -2.044336         0.333247        -1.830770
 C        -0.791638         0.215995        -1.248027
 H         0.668483         0.854099         1.339880
 H        -3.161772         0.380068         0.286175
 H        -2.292698        -0.156423         1.706824
 H        -1.038355         2.245533         1.691700
 H        -1.695897         3.919359         0.040096
 H        -2.220532         3.734364        -2.143231
 H        -3.459404         1.446007        -2.599146
 H        -1.965010         1.709301        -3.469564
 H        -0.544232        -0.886159        -1.367017
 H        -0.085401         0.858612        -1.680090
