19
Iteration:  4806charge 0 multiplicity 1
 O         0.154035        -0.002699         0.956728
 C        -0.956254         0.512583         0.320347
 C        -2.292238         0.534931         0.981307
 C        -1.607668         1.854168         0.760692
 C        -1.984913         2.857663        -0.305826
 C        -2.133756         2.809455        -1.629312
 C        -2.186429         1.577668        -2.443885
 O        -2.086960         0.312507        -1.861261
 C        -0.809457         0.168825        -1.216521
 H         0.886632         0.709917         1.068056
 H        -3.094022         0.293126         0.369448
 H        -2.270352         0.121189         1.940317
 H        -1.184153         2.272568         1.624271
 H        -2.188945         3.876328         0.111325
 H        -2.205728         3.744689        -2.214096
 H        -3.237829         1.609093        -2.853167
 H        -1.421765         1.605552        -3.231756
 H        -0.537855        -0.928259        -1.053006
 H         0.012364         0.867224        -1.666371
