19
Iteration:  2955
 O         0.080498        -0.006473         1.149436
 C        -0.861446         0.490246         0.257493
 C        -2.162320         0.486657         1.012242
 C        -1.561837         1.847465         0.679176
 C        -1.970474         2.971648        -0.337287
 C        -2.229330         2.839909        -1.664638
 C        -2.249269         1.584782        -2.507461
 O        -2.070278         0.329408        -1.794480
 C        -0.827980         0.120008        -1.264567
 H         1.003584         0.436425         1.133653
 H        -3.002432         0.252874         0.286785
 H        -2.308918         0.090329         2.061320
 H        -1.081794         2.327973         1.472075
 H        -2.184406         4.011405         0.183492
 H        -2.590622         3.721470        -2.306202
 H        -3.237021         1.376587        -2.886851
 H        -1.504502         1.659668        -3.357609
 H        -0.683476        -0.988159        -1.528690
 H        -0.037245         0.771547        -1.604287
