19
Iteration:  4366charge 0 multiplicity 1
 O         0.089278         0.008894         1.069530
 C        -1.000942         0.484845         0.246758
 C        -2.270489         0.585731         1.032243
 C        -1.322532         1.919867         0.637550
 C        -2.058878         2.894390        -0.274912
 C        -2.423548         2.837874        -1.531284
 C        -2.036490         1.636465        -2.478634
 O        -2.040001         0.264874        -1.984500
 C        -0.855427         0.014083        -1.136209
 H         0.960683         0.449934         0.899377
 H        -3.211062         0.666778         0.563292
 H        -2.200154         0.247222         2.046541
 H        -0.742997         2.327370         1.502402
 H        -2.232327         3.829056         0.175061
 H        -3.111442         3.567062        -1.992976
 H        -2.806352         1.697962        -3.268077
 H        -1.089648         1.914817        -2.988551
 H        -0.510397        -1.180942        -1.378716
 H        -0.044176         0.533577        -1.639759
