19
Iteration:    73charge 0 multiplicity 1
 O         0.126991         0.060201         1.046246
 C        -0.996173         0.524141         0.259482
 C        -2.306501         0.574175         0.989704
 C        -1.361012         1.842730         0.750007
 C        -1.948347         2.843761        -0.147839
 C        -2.255344         2.800191        -1.499965
 C        -2.227864         1.597086        -2.483860
 O        -1.985499         0.194785        -2.094989
 C        -0.829940         0.314558        -1.256778
 H        -0.005296        -0.842983         1.280496
 H        -3.268949         0.415603         0.504724
 H        -2.294798         0.251329         2.049987
 H        -0.847025         2.098631         1.662623
 H        -2.417804         3.619749         0.409490
 H        -3.082323         3.461850        -1.744398
 H        -3.231977         1.612210        -2.953148
 H        -1.530934         1.769806        -3.407167
 H        -0.168561        -0.594831        -1.443991
 H        -0.117836         1.089316        -1.689785
