19
Iteration:  2592
 O         0.248133         0.066717         1.013564
 C        -0.969814         0.486310         0.285302
 C        -2.337247         0.575594         0.979788
 C        -1.469897         1.832809         0.629446
 C        -1.972711         2.879561        -0.280234
 C        -2.373907         2.839202        -1.580915
 C        -2.062602         1.611072        -2.494806
 O        -2.145139         0.253827        -1.859947
 C        -0.869481         0.048512        -1.157520
 H         0.821151         0.904795         1.139030
 H        -3.284780         0.330948         0.396471
 H        -2.256126         0.503200         2.131185
 H        -0.774868         2.354111         1.455221
 H        -2.083708         3.887431         0.210249
 H        -2.555387         3.828603        -2.088382
 H        -2.781144         1.567384        -3.376441
 H        -1.116426         1.736814        -2.865902
 H        -0.698310        -1.055215        -1.152403
 H        -0.070033         0.446205        -1.655338
