19
Iteration:  1527charge 0 multiplicity 1
 O         0.379462        -0.034598         0.867916
 C        -0.938308         0.451468         0.381006
 C        -2.198591         0.662499         1.168831
 C        -1.528411         1.846340         0.645479
 C        -2.269146         2.855511        -0.323591
 C        -2.326665         2.776173        -1.657873
 C        -1.735533         1.700714        -2.493728
 O        -2.193355         0.431456        -1.908562
 C        -1.119896        -0.063217        -1.070578
 H         1.112518         0.469791         0.378027
 H        -3.222178         0.242172         0.835621
 H        -2.317355         0.741406         2.274147
 H        -1.109111         2.479433         1.385996
 H        -2.692992         3.735270         0.170613
 H        -2.811998         3.755393        -2.070662
 H        -2.254473         1.747286        -3.597269
 H        -0.618954         1.720602        -2.610846
 H        -1.363408        -1.076394        -1.136484
 H        -0.115397        -0.002842        -1.551135
