19
Iteration:  4037
 O         0.150302         0.193622         1.039334
 C        -1.004999         0.470424         0.299727
 C        -2.305688         0.312734         0.960913
 C        -1.640737         1.762953         0.667145
 C        -1.836187         2.837930        -0.295940
 C        -2.027136         2.836593        -1.692453
 C        -2.307091         1.558406        -2.487676
 O        -2.129025         0.333588        -1.778144
 C        -0.856364         0.234628        -1.140911
 H         0.886905         0.871220         0.712175
 H        -3.136543         0.025409         0.288635
 H        -2.423724        -0.007892         2.002104
 H        -1.131715         2.198800         1.490161
 H        -1.415588         3.687343         0.115499
 H        -1.897594         3.768894        -2.163985
 H        -3.274919         1.659071        -2.977981
 H        -1.464681         1.772701        -3.284649
 H        -0.468506        -0.685218        -1.339206
 H        -0.099124         1.024390        -1.519431
