19
Iteration:   992charge 0 multiplicity 1
 O         0.120611         0.134717         0.957514
 C        -0.979202         0.559193         0.224894
 C        -2.230376         0.419226         1.001823
 C        -1.614153         1.893129         0.721095
 C        -1.927901         2.899603        -0.251254
 C        -2.163669         2.813947        -1.597012
 C        -2.218538         1.593182        -2.418829
 O        -2.073406         0.343250        -1.828805
 C        -0.856972         0.000183        -1.185714
 H         0.992430         0.541599         0.594491
 H        -3.033503         0.312524         0.287802
 H        -2.178375        -0.233972         1.880486
 H        -1.099846         2.214360         1.674528
 H        -1.875772         4.004884        -0.081166
 H        -2.057032         3.689592        -2.317702
 H        -3.145306         1.571479        -2.925766
 H        -1.486595         1.741671        -3.261629
 H        -0.838235        -1.096494        -0.920067
 H         0.035423         0.387009        -1.699659
