19
Iteration:  2108
 O         0.127963        -0.031790         0.951219
 C        -1.013432         0.594271         0.357934
 C        -2.395566         0.613420         0.918854
 C        -1.515511         1.923846         0.718649
 C        -1.726656         2.913611        -0.282335
 C        -2.236924         2.760768        -1.511160
 C        -2.338374         1.511750        -2.466646
 O        -1.965375         0.126772        -1.988806
 C        -0.797387         0.246647        -1.120143
 H         0.756696         0.631823         1.126180
 H        -3.039834         0.358038         0.059167
 H        -2.609038         0.332569         2.023857
 H        -1.094664         2.401014         1.637053
 H        -1.584526         3.956200         0.105868
 H        -2.750734         3.625421        -1.985416
 H        -3.522276         1.361339        -2.572860
 H        -2.011185         1.722553        -3.430482
 H        -0.231922        -0.717325        -1.129817
 H        -0.037161         0.942469        -1.394267
