19
Iteration:  1385charge 0 multiplicity 1
 O         0.203945         0.103638         1.100968
 C        -0.931723         0.484889         0.337220
 C        -2.252104         0.455987         0.991026
 C        -1.535377         1.826536         0.679610
 C        -1.928833         2.871102        -0.311569
 C        -2.160496         2.757845        -1.651188
 C        -2.250531         1.624677        -2.521613
 O        -2.137836         0.439920        -1.834347
 C        -0.893642         0.067579        -1.196073
 H         1.009577         0.577429         0.783796
 H        -3.119049         0.245060         0.343092
 H        -2.343025        -0.141340         1.948835
 H        -1.210371         2.225578         1.612631
 H        -1.908914         3.888092        -0.050520
 H        -2.307826         3.739897        -2.167993
 H        -3.228146         1.590392        -3.152839
 H        -1.452404         1.542492        -3.269166
 H        -0.862737        -0.998741        -1.261481
 H        -0.018053         0.493272        -1.747140
