19
Iteration:  3052
 O         0.260299         0.090097         0.959168
 C        -0.986349         0.404119         0.295233
 C        -2.161112         0.652427         1.149217
 C        -1.467151         1.858935         0.564099
 C        -2.229793         2.894182        -0.240781
 C        -2.360799         2.815142        -1.549073
 C        -1.819550         1.720242        -2.524445
 O        -2.032704         0.400021        -1.954219
 C        -1.128665        -0.177247        -1.080242
 H         0.841572         0.253937         0.169809
 H        -3.230392         0.500284         0.916252
 H        -1.879049         0.396528         2.236889
 H        -0.929581         2.387926         1.307580
 H        -2.878301         3.702501         0.348627
 H        -2.861800         3.706869        -2.110833
 H        -2.470100         1.722789        -3.490902
 H        -0.744817         1.871586        -2.863380
 H        -1.349749        -1.320517        -1.072311
 H        -0.110334        -0.155059        -1.664012
