19
Iteration:  2194
 O         0.211403         0.013271         0.995772
 C        -0.959687         0.501944         0.303869
 C        -2.321880         0.589456         0.878821
 C        -1.562054         1.887943         0.652990
 C        -1.881558         2.871854        -0.334163
 C        -2.344162         2.805784        -1.598806
 C        -2.143849         1.565019        -2.435374
 O        -2.093858         0.330706        -1.800533
 C        -0.833842         0.058013        -1.116567
 H         0.985895         0.558994         0.754392
 H        -3.320588         0.410886         0.378344
 H        -2.264952         0.350301         1.984298
 H        -1.232258         2.217195         1.663150
 H        -1.977750         3.851979         0.217724
 H        -2.565844         3.720747        -2.132652
 H        -2.965204         1.458778        -3.209211
 H        -1.061728         1.785073        -2.896650
 H        -0.708918        -1.004661        -1.240853
 H        -0.022059         0.700138        -1.624593
