19
Iteration:  3580charge 0 multiplicity 1
 O         0.196497        -0.023024         0.951497
 C        -0.963345         0.474559         0.318010
 C        -2.213174         0.480270         1.076133
 C        -1.473918         1.906166         0.601544
 C        -2.189528         2.881547        -0.334299
 C        -2.240355         2.867046        -1.622427
 C        -2.003726         1.710680        -2.478583
 O        -2.099512         0.339337        -1.838776
 C        -0.922650         0.025150        -1.078266
 H         0.933512         0.507767         0.464341
 H        -3.042241         0.320527         0.327091
 H        -2.393657         0.245149         2.112316
 H        -0.845643         2.427665         1.481370
 H        -2.378334         3.827675         0.208086
 H        -2.785102         3.729725        -2.174244
 H        -2.794034         1.618968        -3.338590
 H        -1.004492         1.791511        -2.834296
 H        -0.989376        -1.136241        -1.109238
 H         0.011663         0.376440        -1.498128
