19
Iteration:  2621
 O         0.192629         0.048368         0.935680
 C        -0.980029         0.599954         0.303448
 C        -2.166667         0.559115         1.108894
 C        -1.550774         1.958061         0.762236
 C        -2.091826         2.890984        -0.251715
 C        -2.233067         2.706419        -1.546367
 C        -1.988811         1.618762        -2.577042
 O        -2.087938         0.298497        -2.009665
 C        -1.025180        -0.013156        -1.102593
 H         0.952524         0.617845         0.721259
 H        -3.074955         0.141957         0.668966
 H        -2.033197         0.369455         2.169298
 H        -0.808745         2.424757         1.408463
 H        -2.721359         3.709226         0.162805
 H        -2.582281         3.606996        -2.130805
 H        -2.747407         1.830647        -3.321615
 H        -0.939161         1.847294        -3.146749
 H        -1.183008        -1.105971        -0.906411
 H         0.080990         0.083253        -1.581826
