19
Iteration:   685
 O         0.117852        -0.037494         0.975128
 C        -0.967647         0.479265         0.207802
 C        -2.106412         0.776627         1.176794
 C        -1.362638         1.910799         0.540833
 C        -2.185224         2.787182        -0.242498
 C        -2.476855         2.757525        -1.593203
 C        -1.885267         1.717165        -2.493445
 O        -2.046013         0.417954        -1.906453
 C        -1.025752        -0.108886        -1.140072
 H         0.852202         0.535045         1.131753
 H        -3.057326         0.481809         0.731082
 H        -1.873399         0.336193         2.166513
 H        -0.664767         2.411724         1.167045
 H        -2.846319         3.286613         0.371931
 H        -3.188711         3.507085        -1.916189
 H        -2.272495         1.535765        -3.582135
 H        -0.742968         1.911770        -2.695839
 H        -0.961417        -1.260499        -1.069681
 H        -0.096406         0.252202        -1.657977
