19
Iteration:  4208
 O         0.249260         0.273804         0.917004
 C        -0.975418         0.428946         0.286161
 C        -2.214751         0.516767         1.044093
 C        -1.578794         1.766911         0.610744
 C        -2.160312         2.886381        -0.323285
 C        -2.118315         2.811797        -1.600726
 C        -1.888794         1.624373        -2.404602
 O        -2.154059         0.405705        -1.853111
 C        -1.076734        -0.129348        -1.134662
 H         0.985209         0.780728         0.399495
 H        -3.146125         0.105331         0.693076
 H        -2.206311         0.445526         2.132088
 H        -1.068153         2.083838         1.464256
 H        -2.498539         3.684411         0.302101
 H        -2.648214         3.576331        -2.061063
 H        -2.322672         1.792306        -3.387137
 H        -0.839040         1.824693        -2.604062
 H        -1.288393        -1.246410        -0.921226
 H        -0.150624         0.135499        -1.551460
