19
Iteration:  4787
 O         0.124680        -0.027662         1.078060
 C        -0.933573         0.560768         0.242568
 C        -2.304077         0.594976         1.063897
 C        -1.492612         1.879167         0.704510
 C        -2.035984         2.923283        -0.188579
 C        -2.207534         2.756280        -1.516846
 C        -2.231710         1.590784        -2.553536
 O        -1.994069         0.247257        -2.039361
 C        -0.858400         0.119910        -1.216275
 H         1.019824         0.428607         0.861078
 H        -3.194759         0.478763         0.488288
 H        -2.286628         0.410145         2.106687
 H        -1.041930         2.301190         1.595588
 H        -2.053536         3.978973         0.218997
 H        -2.557320         3.654640        -1.918915
 H        -3.179451         1.503980        -3.020886
 H        -1.379591         1.847904        -3.340276
 H        -0.550653        -0.987824        -1.210141
 H         0.084120         0.677738        -1.605767
