19
Iteration:  4944charge 0 multiplicity 1
 O         0.014085        -0.084562         1.128417
 C        -0.903869         0.427560         0.241059
 C        -2.194991         0.686309         1.023329
 C        -1.301162         1.894575         0.579320
 C        -2.063479         2.897080        -0.231052
 C        -2.506357         2.720740        -1.500965
 C        -2.117049         1.673233        -2.581589
 O        -2.007627         0.373883        -1.928593
 C        -0.781174         0.051235        -1.195854
 H         0.785266         0.413534         1.045449
 H        -3.134678         0.439196         0.488386
 H        -2.240033         0.330062         2.105662
 H        -0.807899         2.367731         1.437054
 H        -2.403685         3.793167         0.264520
 H        -2.985614         3.668451        -1.950789
 H        -2.792705         1.535237        -3.376631
 H        -1.195823         1.907850        -3.049477
 H        -0.764769        -0.992510        -1.281276
 H         0.037460         0.611596        -1.664867
