19
Iteration:  2847
 O         0.143216         0.018993         1.141797
 C        -0.891843         0.518778         0.338800
 C        -2.352151         0.598140         0.936835
 C        -1.469549         1.831811         0.702401
 C        -1.847236         2.829994        -0.303546
 C        -2.206436         2.762056        -1.579727
 C        -2.388230         1.506176        -2.521070
 O        -2.052498         0.275658        -1.942444
 C        -0.778766         0.242931        -1.246010
 H         0.546562         0.706192         1.680186
 H        -3.149818         0.331493         0.215848
 H        -2.496568         0.414546         1.995293
 H        -0.958610         2.279540         1.496482
 H        -1.845690         3.830232         0.224480
 H        -2.377873         3.775681        -2.049728
 H        -3.475521         1.459019        -2.872044
 H        -1.967307         1.794292        -3.464709
 H        -0.378981        -0.729721        -1.483399
 H         0.051868         0.853489        -1.638671
