19
Iteration:  2522charge 0 multiplicity 1
 O         0.115947        -0.021029         1.107882
 C        -0.979609         0.545848         0.316264
 C        -2.311730         0.522391         0.979561
 C        -1.498269         1.899329         0.739886
 C        -1.821387         2.936517        -0.334173
 C        -2.224451         2.717738        -1.608750
 C        -2.352636         1.528552        -2.547108
 O        -1.999916         0.219890        -1.876302
 C        -0.827055         0.304465        -1.203673
 H         0.940634         0.186795         0.549875
 H        -3.261559         0.373047         0.539560
 H        -2.131141         0.283489         1.976454
 H        -1.084912         2.225010         1.637486
 H        -1.941179         3.950985        -0.005709
 H        -2.544369         3.632937        -2.102307
 H        -3.362286         1.462052        -2.873833
 H        -1.690227         1.682314        -3.346272
 H        -0.243482        -0.604010        -1.295718
 H        -0.170919         1.077058        -1.658012
