19
Iteration:  1641
 O         0.067745        -0.165566         1.116016
 C        -0.842912         0.501280         0.275949
 C        -2.189640         0.664687         0.974119
 C        -1.484193         1.923317         0.638863
 C        -2.052103         2.874894        -0.285445
 C        -2.304138         2.816922        -1.653221
 C        -2.267617         1.547287        -2.452235
 O        -2.061649         0.349557        -1.829736
 C        -0.777174         0.133865        -1.241128
 H         0.969503         0.286421         1.346713
 H        -3.151675         0.510164         0.451406
 H        -2.232076         0.285997         1.985543
 H        -1.166572         2.468554         1.548545
 H        -1.852820         3.892410         0.043309
 H        -2.437079         3.661585        -2.247751
 H        -3.272846         1.344753        -3.062057
 H        -1.479890         1.814316        -3.244242
 H        -0.214905        -0.718217        -1.622089
 H        -0.066186         0.871414        -1.632020
