19
Iteration:   980
 O         0.222382         0.168766         0.978765
 C        -0.974359         0.499887         0.298865
 C        -2.357951         0.452240         0.928212
 C        -1.565603         1.792041         0.729741
 C        -1.939240         2.917147        -0.266356
 C        -2.060820         2.829284        -1.610873
 C        -2.268098         1.584264        -2.494266
 O        -2.101343         0.306985        -1.793458
 C        -0.869977         0.051331        -1.196284
 H         0.793122         0.914039         0.714128
 H        -3.200591         0.092386         0.361876
 H        -2.381958         0.209047         2.024320
 H        -1.091050         2.201335         1.651724
 H        -1.709605         3.844679         0.249956
 H        -2.159855         3.863043        -2.065628
 H        -3.276685         1.498960        -2.814934
 H        -1.598736         1.600634        -3.393828
 H        -0.654510        -1.012105        -1.397430
 H        -0.039879         0.578679        -1.734594
