19
Iteration:   865charge 0 multiplicity 1
 O        -0.026905        -0.022739         1.078103
 C        -0.885215         0.552605         0.208919
 C        -2.238965         0.659203         0.965182
 C        -1.416048         1.910379         0.677172
 C        -1.787575         2.869788        -0.320868
 C        -2.468967         2.615675        -1.442420
 C        -2.311545         1.568601        -2.419599
 O        -1.959272         0.294919        -1.987021
 C        -0.774079         0.164989        -1.234921
 H         0.548941         0.711458         1.306444
 H        -3.193382         0.802153         0.512789
 H        -2.163017         0.282822         2.005531
 H        -0.939111         2.349480         1.602965
 H        -1.796268         4.022293        -0.044139
 H        -2.846002         3.425802        -2.080374
 H        -3.294360         1.457180        -2.956032
 H        -1.422858         1.886998        -2.980475
 H        -0.553087        -0.902551        -1.062180
 H         0.210342         0.423875        -1.742668
