19
Iteration:  3101
 O         0.125929        -0.048108         0.928153
 C        -0.944493         0.530171         0.181856
 C        -2.085905         0.733562         1.198297
 C        -1.433544         1.982643         0.617205
 C        -2.299412         2.862752        -0.226695
 C        -2.390098         2.753813        -1.569280
 C        -1.772790         1.666058        -2.358130
 O        -2.048909         0.380015        -2.006211
 C        -1.097128        -0.121303        -1.172381
 H         1.056607         0.276645         0.735077
 H        -3.033953         0.335014         0.847516
 H        -1.921153         0.470772         2.196888
 H        -0.586376         2.486766         1.227252
 H        -3.008689         3.542716         0.165703
 H        -3.198530         3.265789        -2.004948
 H        -2.139020         1.822106        -3.319340
 H        -0.663854         1.753902        -2.562067
 H        -1.203890        -1.205356        -1.132939
 H        -0.073237        -0.028825        -1.735406
