19
Iteration:  2896
 O         0.117052        -0.124783         1.000980
 C        -0.969253         0.547291         0.271442
 C        -2.395611         0.684054         0.939340
 C        -1.526117         1.906111         0.682745
 C        -1.871995         2.986615        -0.265462
 C        -2.259326         2.744398        -1.573471
 C        -2.415524         1.498071        -2.377390
 O        -1.868029         0.178190        -1.947394
 C        -0.718351         0.222108        -1.157805
 H         0.804557         0.584140         0.942662
 H        -3.278103         0.608317         0.378094
 H        -2.470822         0.423555         1.993511
 H        -1.259428         2.347429         1.705933
 H        -1.681943         3.965005         0.040541
 H        -2.564209         3.607858        -2.117470
 H        -3.423985         1.543359        -2.611075
 H        -1.978071         1.749428        -3.406648
 H        -0.198536        -0.740701        -1.293013
 H         0.130718         0.895676        -1.499468
