19
Iteration:  3408
 O         0.338720         0.139194         0.944198
 C        -1.045505         0.471678         0.309489
 C        -2.291039         0.505559         1.113491
 C        -1.531441         1.832101         0.694114
 C        -2.025600         2.931721        -0.263122
 C        -2.275093         2.739054        -1.616719
 C        -1.934284         1.650975        -2.484905
 O        -2.150952         0.390456        -1.965809
 C        -1.033364        -0.045544        -1.116178
 H         0.936536         0.814262         0.647723
 H        -3.147882         0.198645         0.505796
 H        -2.412380         0.008210         2.131741
 H        -1.043718         2.111166         1.596111
 H        -2.272970         3.936671         0.196509
 H        -2.622500         3.778992        -1.983401
 H        -2.521436         1.820265        -3.414506
 H        -0.919649         1.742393        -2.953793
 H        -1.106109        -1.139538        -1.122406
 H        -0.073946         0.148422        -1.668533
