19
Iteration:  4999charge 0 multiplicity 1
 O         0.221883         0.065396         0.936651
 C        -0.932834         0.527256         0.282275
 C        -2.270378         0.480953         1.048101
 C        -1.573376         1.871722         0.726384
 C        -2.095842         2.865353        -0.277532
 C        -2.321452         2.776596        -1.592754
 C        -1.921492         1.668909        -2.470707
 O        -2.047869         0.386686        -1.913043
 C        -1.003547         0.003166        -1.124812
 H         0.974334         0.407128         0.465329
 H        -3.183998         0.326216         0.469517
 H        -2.237829         0.028308         2.020010
 H        -1.107195         2.369789         1.533957
 H        -2.213145         3.895682         0.081427
 H        -2.803854         3.730898        -2.080587
 H        -2.664326         1.639331        -3.193563
 H        -0.886101         1.901150        -2.857850
 H        -1.002255        -1.036785        -1.016919
 H        -0.048760         0.097210        -1.665060
