19
Iteration:  1458
 O         0.166894         0.023487         1.019468
 C        -1.001739         0.473887         0.350026
 C        -2.207538         0.751552         1.091700
 C        -1.274196         1.932073         0.657317
 C        -2.080206         2.938705        -0.197899
 C        -2.511142         2.754536        -1.528493
 C        -1.953021         1.733557        -2.502670
 O        -2.042812         0.254196        -2.180541
 C        -0.994506        -0.120443        -1.106662
 H         0.880409         0.261282         0.477879
 H        -3.149674         0.538092         0.643521
 H        -2.261339         0.434335         2.131881
 H        -0.655803         2.240147         1.523321
 H        -2.518933         3.731060         0.465869
 H        -3.308803         3.218256        -1.965442
 H        -2.387928         1.662071        -3.464131
 H        -0.816757         2.044329        -2.659697
 H        -1.269742        -1.175831        -0.864802
 H        -0.042739        -0.042803        -1.654537
