19
Iteration:  3070charge 0 multiplicity 1
 O         0.246538        -0.021097         0.899833
 C        -0.949003         0.490645         0.355716
 C        -2.165407         0.644994         1.248863
 C        -1.443414         1.897672         0.580302
 C        -2.217249         2.784889        -0.361330
 C        -2.454122         2.798378        -1.662129
 C        -1.779743         1.789528        -2.473611
 O        -2.069477         0.435621        -1.947574
 C        -1.101723        -0.107581        -1.075913
 H         1.103721         0.017553         0.437860
 H        -2.998095         0.228029         0.743707
 H        -2.235548         0.580741         2.280292
 H        -0.723769         2.344633         1.343212
 H        -2.663969         3.531870         0.199762
 H        -3.287266         3.373154        -1.980453
 H        -2.208042         1.892274        -3.536076
 H        -0.712299         1.904209        -2.404507
 H        -1.466439        -1.078195        -0.899943
 H        -0.128192        -0.085235        -1.544613
