19
Iteration:  3588charge 0 multiplicity 1
 O         0.171092         0.017529         0.981106
 C        -0.968740         0.500689         0.273724
 C        -2.213703         0.427838         1.035578
 C        -1.498099         1.888843         0.638053
 C        -2.134994         2.963903        -0.285826
 C        -2.225102         2.882825        -1.669052
 C        -2.040516         1.623568        -2.445229
 O        -2.112824         0.340623        -1.818382
 C        -0.896274        -0.003023        -1.146853
 H         0.985333         0.481035         0.663514
 H        -3.202315         0.435669         0.593575
 H        -2.286401         0.108729         2.085236
 H        -0.948036         2.373198         1.545257
 H        -2.489412         3.851637         0.382265
 H        -2.455491         3.727848        -2.398945
 H        -2.865622         1.721033        -3.102246
 H        -1.108579         1.783691        -3.051021
 H        -0.678737        -1.092828        -1.250643
 H         0.027381         0.379247        -1.648238
