19
Iteration:  1982
 O         0.158013         0.151764         0.908520
 C        -0.964915         0.581258         0.271477
 C        -2.189323         0.543972         1.134602
 C        -1.524043         1.915137         0.741509
 C        -2.087652         2.899073        -0.236001
 C        -2.209554         2.826347        -1.551562
 C        -1.940447         1.588615        -2.460867
 O        -2.153975         0.270211        -1.991114
 C        -0.991441        -0.127177        -1.219874
 H         0.713014         0.902959         1.053410
 H        -3.101913         0.256787         0.671724
 H        -1.909092         0.095332         2.084627
 H        -0.863295         2.395395         1.539020
 H        -2.568741         3.846997         0.153354
 H        -2.303633         3.793048        -2.183838
 H        -2.719845         1.644393        -3.316884
 H        -0.922894         1.656979        -2.871530
 H        -1.273917        -1.110889        -1.022293
 H        -0.045510        -0.040607        -1.718074
