19
Iteration:   212charge 0 multiplicity 1
 O         0.253234        -0.055980         0.945980
 C        -0.935234         0.538052         0.379882
 C        -2.255520         0.676416         1.184152
 C        -1.553973         1.969597         0.811404
 C        -2.107994         2.846255        -0.210229
 C        -2.363164         2.715989        -1.490970
 C        -2.114521         1.663867        -2.539910
 O        -1.961703         0.333143        -2.166198
 C        -0.896447         0.053801        -1.217551
 H         0.749468        -0.475858         0.162320
 H        -3.162503         0.312924         0.658773
 H        -2.313784         0.289913         2.214147
 H        -1.328979         2.416441         1.737398
 H        -2.123339         3.913216         0.062524
 H        -2.792613         3.527184        -2.050205
 H        -2.862490         1.681303        -3.389498
 H        -1.068452         1.926700        -2.960249
 H        -0.951865        -1.028878        -1.127433
 H         0.102173         0.354931        -1.563713
