19
Iteration:  3268
 O         0.036538         0.022350         1.050053
 C        -0.994353         0.533877         0.222442
 C        -2.316854         0.589516         0.875323
 C        -1.475388         1.872390         0.711950
 C        -1.943696         2.962004        -0.196107
 C        -2.069546         2.768943        -1.560076
 C        -2.419086         1.512113        -2.377678
 O        -1.962275         0.230280        -1.928240
 C        -0.724311         0.144141        -1.233890
 H         0.883135         0.585676         0.880144
 H        -3.204017         0.333615         0.220567
 H        -2.321418         0.064028         1.853264
 H        -1.039654         2.188988         1.645401
 H        -2.024683         4.039510         0.092423
 H        -2.174509         3.867136        -1.989416
 H        -3.479346         1.446602        -2.458279
 H        -2.197236         1.733660        -3.446441
 H        -0.236290        -0.804582        -1.321269
 H         0.110748         0.817796        -1.503598
