19
Iteration:   387charge 0 multiplicity 1
 O         0.346023         0.177095         0.984438
 C        -0.944599         0.465030         0.338949
 C        -2.326579         0.525673         1.008088
 C        -1.608502         1.808562         0.594188
 C        -2.104598         2.870567        -0.206749
 C        -2.180138         2.857405        -1.562517
 C        -2.045974         1.684751        -2.502231
 O        -2.106074         0.302358        -1.925371
 C        -0.951380        -0.001425        -1.089293
 H         0.953543         0.067062         0.211968
 H        -3.057549         0.203825         0.273833
 H        -2.433663         0.456192         2.104928
 H        -1.115459         2.114864         1.469980
 H        -2.382785         3.725304         0.431429
 H        -2.735381         3.623375        -2.028231
 H        -2.784850         1.530234        -3.295473
 H        -1.095726         1.777782        -3.130121
 H        -1.073398        -1.070113        -1.074416
 H         0.016152         0.298029        -1.645142
