19
Iteration:  1004
 O         0.113721         0.061382         1.009416
 C        -0.898992         0.624848         0.230575
 C        -2.132457         0.474123         0.956005
 C        -1.621633         1.871000         0.725699
 C        -1.965332         2.973757        -0.290272
 C        -2.223804         2.775904        -1.554569
 C        -2.155956         1.605745        -2.441730
 O        -2.093621         0.288909        -1.925235
 C        -0.926904         0.041015        -1.127099
 H         0.923756         0.101390         0.545748
 H        -3.089774         0.188381         0.515724
 H        -2.069121         0.156679         1.975244
 H        -1.042955         2.421969         1.519745
 H        -2.062203         3.888943         0.344457
 H        -2.444770         3.738481        -2.093581
 H        -3.001021         1.602077        -3.063430
 H        -1.244008         1.763043        -3.078843
 H        -1.001555        -1.094035        -1.076527
 H        -0.008203         0.152989        -1.693401
