19
Iteration:   498charge 0 multiplicity 1
 O         0.114570        -0.048360         0.909927
 C        -0.975321         0.673593         0.287957
 C        -2.223531         0.510652         0.994963
 C        -1.546158         1.960075         0.822707
 C        -1.915210         2.997060        -0.248580
 C        -2.196927         2.712608        -1.567122
 C        -2.319566         1.519011        -2.522154
 O        -1.969342         0.195621        -1.999315
 C        -0.802067         0.172149        -1.136507
 H         0.082477         0.077017         1.873720
 H        -3.154340         0.287039         0.487753
 H        -2.178411         0.164751         2.016663
 H        -0.983117         2.379182         1.717552
 H        -1.961271         4.049936         0.122244
 H        -2.677999         3.556249        -2.173763
 H        -3.397449         1.616592        -2.911045
 H        -1.769883         1.829606        -3.488326
 H        -0.289852        -0.795107        -0.977052
 H        -0.056268         0.847355        -1.598192
