19
Iteration:  2402
 O         0.197394         0.009659         0.990478
 C        -0.925699         0.544370         0.325898
 C        -2.219437         0.555092         1.101166
 C        -1.556886         1.880093         0.718866
 C        -2.088406         2.899503        -0.285936
 C        -2.294373         2.737811        -1.636036
 C        -2.062700         1.601580        -2.572882
 O        -2.100509         0.314882        -1.909537
 C        -0.908960         0.154348        -1.126820
 H         0.993453         0.019582         0.490417
 H        -3.044623         0.069998         0.508514
 H        -2.222318         0.226064         2.166266
 H        -1.007508         2.359495         1.512097
 H        -2.249774         3.944282         0.150877
 H        -2.432862         3.639959        -2.265643
 H        -2.862066         1.608899        -3.324511
 H        -1.004548         1.819829        -2.995101
 H        -0.852527        -0.923854        -0.976238
 H        -0.010316         0.488062        -1.625694
