19
Iteration:  2397charge 0 multiplicity 1
 O         0.165365        -0.009561         0.962620
 C        -0.934159         0.608800         0.308204
 C        -2.154189         0.520976         1.174937
 C        -1.579575         1.901060         0.728519
 C        -2.135017         2.912958        -0.292691
 C        -2.288892         2.719995        -1.603498
 C        -2.035389         1.604606        -2.598889
 O        -2.055293         0.319573        -1.916834
 C        -0.957998         0.095246        -1.123689
 H         1.103219         0.039852         0.563535
 H        -2.938768         0.130164         0.423273
 H        -2.282855         0.198076         2.218403
 H        -0.946600         2.486855         1.470856
 H        -2.206432         3.969563        -0.015271
 H        -2.324621         3.662164        -2.174152
 H        -2.800420         1.671230        -3.390825
 H        -1.079852         1.859055        -3.028886
 H        -0.970805        -1.006028        -0.983546
 H        -0.112626         0.581126        -1.702277
