19
Iteration:  4045
 O         0.131768         0.164727         1.028060
 C        -0.969367         0.459846         0.278389
 C        -2.312598         0.336001         0.970964
 C        -1.697122         1.751902         0.688352
 C        -1.828736         2.871865        -0.372215
 C        -2.024435         2.828956        -1.653979
 C        -2.285444         1.612764        -2.438814
 O        -2.121821         0.333901        -1.765286
 C        -0.796992         0.207246        -1.166815
 H         0.889567         0.845888         0.855255
 H        -3.146152         0.233622         0.308043
 H        -2.408260        -0.007602         1.989205
 H        -1.198757         2.132516         1.587682
 H        -1.392927         3.868100         0.071937
 H        -2.139277         3.663225        -2.265335
 H        -3.317683         1.482961        -2.866944
 H        -1.621683         1.620533        -3.398850
 H        -0.311201        -0.781900        -1.404576
 H        -0.356026         1.056724        -1.519591
