19
Iteration:  4736charge 0 multiplicity 1
 O         0.067804        -0.143827         1.091945
 C        -0.935273         0.424675         0.275298
 C        -2.165858         0.763031         0.965399
 C        -1.350419         1.947695         0.610780
 C        -2.113000         2.932234        -0.259555
 C        -2.533142         2.753324        -1.520558
 C        -2.057784         1.670374        -2.450934
 O        -1.952393         0.333640        -1.981135
 C        -0.860895         0.002096        -1.173016
 H         0.948433         0.260914         0.791165
 H        -3.152001         0.559428         0.384965
 H        -2.143473         0.438966         2.073900
 H        -0.761779         2.518959         1.407183
 H        -2.568159         3.746372         0.305164
 H        -3.230929         3.510292        -1.976895
 H        -2.892259         1.497220        -3.183397
 H        -1.105602         2.020062        -2.903378
 H        -0.793895        -1.052320        -1.245443
 H         0.234804         0.453564        -1.570745
