19
Iteration:  1995
 O         0.188353         0.116158         0.928994
 C        -0.991861         0.544222         0.215490
 C        -2.196002         0.563034         1.099786
 C        -1.567322         1.863327         0.675286
 C        -2.050361         2.941959        -0.196321
 C        -2.146419         2.745440        -1.561272
 C        -1.974341         1.584982        -2.527328
 O        -2.140145         0.282028        -1.927602
 C        -1.019833        -0.009429        -1.139759
 H         0.892703         0.831547         0.823914
 H        -3.097349         0.256821         0.662123
 H        -2.199264         0.460640         2.164330
 H        -1.119352         2.229242         1.612031
 H        -2.254988         3.884825         0.323080
 H        -2.842652         3.449103        -1.984338
 H        -2.708432         1.742018        -3.467451
 H        -0.919442         1.621121        -2.993651
 H        -0.855248        -1.039030        -1.019519
 H        -0.131023         0.306503        -1.712835
