19
Iteration:  1747charge 0 multiplicity 1
 O         0.128655         0.060010         1.115511
 C        -0.954457         0.488225         0.253881
 C        -2.291074         0.517237         0.902701
 C        -1.527040         1.835615         0.767463
 C        -1.849332         2.848720        -0.295058
 C        -2.118484         2.739722        -1.661300
 C        -2.420796         1.563224        -2.478172
 O        -2.055252         0.335841        -1.828278
 C        -0.777544         0.209853        -1.254553
 H         0.679487         0.881273         1.336036
 H        -3.150976         0.371749         0.266340
 H        -2.286624        -0.153552         1.714173
 H        -1.042908         2.238042         1.690964
 H        -1.657156         3.902301         0.043990
 H        -2.225587         3.706752        -2.131531
 H        -3.443879         1.459358        -2.618280
 H        -1.968690         1.713113        -3.454685
 H        -0.542126        -0.848339        -1.349832
 H        -0.084833         0.877818        -1.683490
