19
Iteration:  4869charge 0 multiplicity 1
 O         0.144870         0.146561         1.125903
 C        -0.933069         0.496775         0.246396
 C        -2.272747         0.352675         1.003303
 C        -1.566609         1.795798         0.674519
 C        -1.884310         2.921657        -0.265962
 C        -2.117907         2.797528        -1.601506
 C        -2.267357         1.635695        -2.559047
 O        -2.135390         0.377835        -1.867897
 C        -0.810712         0.085065        -1.188784
 H         0.950530         0.707736         0.795543
 H        -3.055542        -0.066642         0.369874
 H        -2.419001         0.097993         2.086802
 H        -1.194257         2.048026         1.666125
 H        -1.997438         3.939596         0.088684
 H        -2.066251         3.805505        -2.187830
 H        -3.375048         1.626362        -2.877302
 H        -1.698438         1.687972        -3.584120
 H        -0.876533        -1.009208        -1.340608
 H        -0.001632         0.669749        -1.620817
