19
Iteration:  3170charge 0 multiplicity 1
 O         0.200102         0.016207         0.984517
 C        -0.937093         0.553602         0.311393
 C        -2.186102         0.570141         1.046200
 C        -1.515335         1.880798         0.724914
 C        -2.128459         2.877386        -0.250763
 C        -2.234459         2.867504        -1.628569
 C        -2.031600         1.615985        -2.503641
 O        -2.085904         0.329057        -1.924790
 C        -1.021299        -0.010786        -1.154822
 H         1.044723         0.490984         0.649579
 H        -3.090210         0.217268         0.526926
 H        -2.094744         0.081669         2.037391
 H        -0.899196         2.236171         1.555897
 H        -2.467369         3.735203         0.356988
 H        -2.715412         3.753410        -2.236410
 H        -2.743338         1.595550        -3.457408
 H        -1.032075         1.842170        -2.966247
 H        -0.978618        -1.093299        -1.018996
 H        -0.016878         0.280745        -1.713779
