19
Iteration:   240charge 0 multiplicity 1
 O         0.004334         0.021162         0.932124
 C        -1.044547         0.526675         0.197834
 C        -2.143907         0.682987         1.170579
 C        -1.300753         1.884310         0.607273
 C        -2.156494         2.781679        -0.131606
 C        -2.435571         2.778521        -1.490572
 C        -1.960229         1.692686        -2.485338
 O        -1.931780         0.332570        -2.062381
 C        -0.920830        -0.004980        -1.162333
 H         0.837085         0.561369         0.832530
 H        -3.126382         0.578381         0.726200
 H        -2.059884         0.154014         2.127972
 H        -0.673882         2.307833         1.478925
 H        -2.611872         3.587226         0.503141
 H        -3.413231         3.324635        -1.778753
 H        -2.667955         1.684283        -3.315909
 H        -1.049004         1.791798        -3.029458
 H        -0.739945        -1.099710        -1.089979
 H         0.076520         0.267564        -1.625015
