19
Iteration:   629charge 0 multiplicity 1
 O         0.182857         0.102123         0.975271
 C        -1.011667         0.496471         0.276653
 C        -2.253792         0.592030         1.082008
 C        -1.475325         1.942269         0.682755
 C        -2.014925         2.967734        -0.238725
 C        -2.437609         2.781134        -1.519687
 C        -2.024873         1.637864        -2.426067
 O        -2.034903         0.240495        -2.032747
 C        -0.880600        -0.042404        -1.200327
 H         0.677504        -0.679345         0.551689
 H        -3.264330         0.561363         0.646655
 H        -2.232770         0.408510         2.145760
 H        -0.827187         2.266239         1.524177
 H        -2.129378         3.997492         0.121542
 H        -2.976961         3.627093        -2.053555
 H        -2.639337         1.668249        -3.383475
 H        -0.929343         1.929225        -2.564313
 H        -0.693867        -1.120848        -0.972079
 H         0.016336         0.279992        -1.755429
