19
Iteration:  4776charge 0 multiplicity 1
 O         0.069577         0.007310         1.093926
 C        -1.003570         0.454833         0.323168
 C        -2.192243         0.660090         1.010182
 C        -1.442929         1.907285         0.752778
 C        -1.983225         2.899132        -0.212134
 C        -2.334277         2.771001        -1.534260
 C        -2.208000         1.585819        -2.491481
 O        -1.947005         0.279059        -2.112544
 C        -0.860793         0.107914        -1.193924
 H         0.871577         0.315230         0.694049
 H        -3.110238         0.475804         0.531829
 H        -2.156658         0.158856         1.932922
 H        -0.852011         2.219924         1.589901
 H        -2.160815         3.958811         0.185137
 H        -2.810786         3.525521        -2.060682
 H        -3.115167         1.586337        -3.039302
 H        -1.414684         1.860552        -3.352469
 H        -0.758253        -1.031501        -1.141752
 H         0.031745         0.630531        -1.668269
