19
Iteration:  2911charge 0 multiplicity 1
 O         0.126016        -0.047654         1.087998
 C        -1.001647         0.446410         0.345077
 C        -2.322245         0.671585         0.826849
 C        -1.493857         1.945449         0.779854
 C        -1.803600         2.903404        -0.331715
 C        -2.295202         2.751451        -1.535228
 C        -2.362484         1.491559        -2.408532
 O        -1.967555         0.259764        -1.941722
 C        -0.751701         0.243250        -1.187130
 H         0.980747         0.413274         0.738604
 H        -3.162591         0.525083         0.079499
 H        -2.566055         0.223638         1.780991
 H        -0.936853         2.272786         1.656483
 H        -2.031782         3.981997         0.060576
 H        -2.651683         3.618728        -2.134933
 H        -3.425533         1.213424        -2.779634
 H        -1.853479         1.654781        -3.413220
 H        -0.233463        -0.775362        -1.259043
 H        -0.096386         0.951639        -1.707394
