19
Iteration:  4295charge 0 multiplicity 1
 O         0.187632         0.012860         0.989327
 C        -1.013296         0.532465         0.227532
 C        -2.200358         0.671793         1.212883
 C        -1.421335         1.896043         0.566181
 C        -2.222157         2.828119        -0.213489
 C        -2.426539         2.750936        -1.578596
 C        -1.789310         1.730564        -2.487778
 O        -2.037473         0.357501        -1.988161
 C        -1.046617        -0.128072        -1.134466
 H         0.951543         0.471985         0.472956
 H        -3.250646         0.525315         0.924777
 H        -1.903835         0.463811         2.259239
 H        -0.832813         2.390868         1.268099
 H        -2.611547         3.815375         0.300862
 H        -3.015133         3.488554        -2.071469
 H        -2.286742         1.703751        -3.487279
 H        -0.674914         1.919737        -2.683267
 H        -1.086160        -1.254936        -1.214298
 H        -0.075991         0.084298        -1.672787
