19
Iteration:  2755charge 0 multiplicity 1
 O         0.173026         0.131116         0.962160
 C        -1.025766         0.429091         0.319197
 C        -2.190723         0.595386         1.206231
 C        -1.515630         1.849937         0.670336
 C        -2.034718         2.831776        -0.290720
 C        -2.343838         2.738018        -1.631415
 C        -1.935958         1.661182        -2.502845
 O        -2.073488         0.394473        -2.025036
 C        -0.997319        -0.042008        -1.140951
 H         0.815753         0.757055         0.640686
 H        -3.255955         0.266993         0.941008
 H        -1.940679         0.519151         2.273126
 H        -0.824258         2.338263         1.497915
 H        -2.205392         3.795145         0.244443
 H        -2.922709         3.576197        -1.986428
 H        -2.553289         1.723628        -3.395109
 H        -0.950475         1.739751        -2.923312
 H        -0.982047        -1.162259        -1.108253
 H        -0.065219         0.194119        -1.518309
