19
Iteration:  2809charge 0 multiplicity 1
 O         0.176451         0.004765         1.055768
 C        -0.916055         0.607945         0.277560
 C        -2.294578         0.497915         0.903140
 C        -1.609190         1.886687         0.637455
 C        -1.903430         2.932143        -0.302206
 C        -2.247808         2.830506        -1.588924
 C        -2.199729         1.535157        -2.506933
 O        -2.083964         0.336315        -1.755199
 C        -0.823965         0.084771        -1.185802
 H         1.001526         0.322423         0.745043
 H        -3.075896         0.057342         0.210795
 H        -2.368330         0.233383         1.972276
 H        -1.240089         2.291034         1.681679
 H        -2.088713         3.844811         0.247606
 H        -2.560016         3.791454        -2.051003
 H        -3.067777         1.400019        -3.105785
 H        -1.344461         1.479164        -3.192323
 H        -0.583753        -1.033862        -1.113582
 H        -0.031094         0.576325        -1.784686
