19
Iteration:   792
 O         0.202339         0.154255         0.928173
 C        -0.989478         0.458417         0.288195
 C        -2.128821         0.424851         1.097314
 C        -1.616919         1.854604         0.682631
 C        -1.970721         2.877306        -0.377360
 C        -2.263801         2.814396        -1.690420
 C        -1.980865         1.615642        -2.486372
 O        -2.169153         0.428109        -1.786795
 C        -1.024919         0.012142        -1.075736
 H         0.932713         0.426418         0.426942
 H        -3.036236         0.080296         0.586680
 H        -2.036840         0.149140         2.170084
 H        -1.045638         2.361872         1.460320
 H        -2.317936         3.799353         0.107849
 H        -2.508617         3.673286        -2.289738
 H        -2.599428         1.483280        -3.338779
 H        -0.913962         1.749136        -2.784901
 H        -1.048739        -1.073711        -1.054662
 H        -0.071748         0.269541        -1.577331
