19
Iteration:  2304
 O         0.240955         0.003309         0.954090
 C        -0.908463         0.506494         0.233482
 C        -2.072945         0.674244         0.974807
 C        -1.501263         2.024743         0.613985
 C        -2.355430         2.921017        -0.250146
 C        -2.356859         2.791197        -1.584331
 C        -1.761888         1.701058        -2.380943
 O        -2.103421         0.301417        -1.875976
 C        -1.102943        -0.193230        -1.122733
 H         1.004579         0.133977         0.411840
 H        -3.004466         0.303801         0.491321
 H        -2.014222         0.324769         1.996490
 H        -0.947362         2.455696         1.455035
 H        -2.871058         3.825325         0.230975
 H        -2.934899         3.547914        -2.204175
 H        -2.173251         1.745779        -3.386661
 H        -0.686937         1.777185        -2.321263
 H        -1.586971        -1.121294        -0.821722
 H        -0.084071        -0.054566        -1.687738
