19
Iteration:  4875charge 0 multiplicity 1
 O         0.112916         0.125590         1.087622
 C        -0.937862         0.536624         0.275241
 C        -2.275130         0.411605         1.006812
 C        -1.555591         1.801917         0.671268
 C        -1.894878         2.895687        -0.259137
 C        -2.093895         2.814271        -1.618265
 C        -2.275260         1.621199        -2.487460
 O        -2.086666         0.335474        -1.901549
 C        -0.826960         0.099556        -1.212127
 H         0.867733         0.609102         0.656610
 H        -3.148306         0.051806         0.379041
 H        -2.268194        -0.037308         2.048825
 H        -1.137349         2.100822         1.692498
 H        -2.192018         3.860264         0.201649
 H        -2.223593         3.647993        -2.256127
 H        -3.288852         1.615666        -2.789170
 H        -1.615250         1.795563        -3.313337
 H        -0.951268        -0.978956        -1.195321
 H         0.039106         0.707473        -1.689821
