19
Iteration:  1222charge 0 multiplicity 1
 O         0.175457         0.012074         1.007059
 C        -0.984121         0.547030         0.268763
 C        -2.198462         0.657113         1.072556
 C        -1.413823         1.936013         0.574079
 C        -2.079733         2.969802        -0.229610
 C        -2.338465         2.761060        -1.513610
 C        -2.051383         1.552626        -2.418024
 O        -2.050765         0.255214        -2.032749
 C        -1.003334        -0.017859        -1.157255
 H         0.959402         0.662160         1.020408
 H        -3.110464         0.422806         0.545408
 H        -2.215958         0.272704         2.087418
 H        -0.848354         2.243672         1.466397
 H        -2.334125         3.927334         0.263684
 H        -2.628099         3.630443        -2.057548
 H        -2.750324         1.613634        -3.212014
 H        -1.043216         1.773338        -2.852937
 H        -0.978616        -1.147966        -1.167029
 H        -0.031484         0.369915        -1.625855
