19
Iteration:  3284
 O         0.008454        -0.088510         1.042677
 C        -0.971177         0.566162         0.191573
 C        -2.283006         0.600957         0.861616
 C        -1.513485         1.855270         0.666745
 C        -1.926842         2.961503        -0.205439
 C        -2.121565         2.787085        -1.567645
 C        -2.360719         1.472953        -2.296566
 O        -1.931619         0.194538        -1.932521
 C        -0.744147         0.316092        -1.230321
 H         0.830628         0.456494         1.056215
 H        -3.228420         0.600137         0.413510
 H        -2.466163         0.366746         1.902127
 H        -0.997880         2.444696         1.502221
 H        -1.884188         3.872872         0.355739
 H        -2.329344         3.502993        -2.254103
 H        -3.578739         1.385090        -2.276480
 H        -1.917566         1.582838        -3.302599
 H        -0.353132        -0.777905        -1.144676
 H        -0.064910         1.055906        -1.831969
