19
Iteration:  2367charge 0 multiplicity 1
 O         0.222119         0.075607         0.928488
 C        -1.004275         0.502422         0.260340
 C        -2.222718         0.677431         1.266749
 C        -1.510649         1.848596         0.645394
 C        -2.153624         2.868632        -0.232684
 C        -2.247051         2.799402        -1.573319
 C        -1.930537         1.689969        -2.546794
 O        -2.029523         0.273090        -2.004173
 C        -1.031600        -0.063669        -1.156003
 H         0.939427         0.692163         0.749117
 H        -3.268852         0.176084         0.847718
 H        -2.017463         0.469820         2.379480
 H        -0.802234         2.359655         1.426457
 H        -2.945379         3.658596         0.167855
 H        -2.838033         3.664269        -1.980715
 H        -2.641707         1.747730        -3.387133
 H        -0.908401         1.829343        -3.099915
 H        -1.120912        -1.160505        -0.995288
 H        -0.084585         0.027700        -1.641863
