19
Iteration:  4946
 O         0.023100        -0.086546         1.150426
 C        -0.915225         0.428871         0.233650
 C        -2.199278         0.676266         1.035763
 C        -1.296174         1.902015         0.580667
 C        -2.074727         2.889256        -0.245973
 C        -2.498706         2.732525        -1.507280
 C        -2.118903         1.659174        -2.561714
 O        -2.007592         0.387720        -1.928977
 C        -0.786305         0.049100        -1.221507
 H         0.853370         0.423210         1.056228
 H        -3.106296         0.486383         0.509358
 H        -2.236990         0.354742         2.041336
 H        -0.784529         2.313829         1.388505
 H        -2.478892         3.791227         0.273437
 H        -2.982351         3.701340        -1.956011
 H        -2.873040         1.535954        -3.402248
 H        -1.147530         1.935264        -2.983836
 H        -0.768894        -1.066559        -1.344106
 H         0.132090         0.571968        -1.661905
