19
Iteration:   647charge 0 multiplicity 1
 O         0.204792        -0.001769         1.134756
 C        -0.866816         0.522484         0.308940
 C        -2.173707         0.723119         1.040374
 C        -1.402570         1.906598         0.562921
 C        -2.087370         2.938770        -0.249821
 C        -2.561999         2.782152        -1.518588
 C        -2.006463         1.705605        -2.481943
 O        -1.997821         0.299417        -2.096377
 C        -1.005955        -0.130107        -1.116910
 H         0.709032        -0.543715         0.432942
 H        -2.951915         0.313998         0.407498
 H        -2.167437         0.338895         2.071126
 H        -0.884360         2.422076         1.429273
 H        -2.536930         3.794265         0.440590
 H        -3.188073         3.584113        -1.950018
 H        -2.619313         1.834743        -3.321431
 H        -0.965112         2.009223        -2.789586
 H        -1.266995        -1.189274        -1.163822
 H         0.007529         0.211342        -1.486867
