19
Iteration:  4709
 O         0.109128        -0.090284         1.028458
 C        -0.883467         0.558089         0.243041
 C        -2.174322         0.661371         0.992814
 C        -1.408482         1.888903         0.647630
 C        -2.187432         2.853728        -0.232626
 C        -2.427864         2.788732        -1.568493
 C        -1.909253         1.650231        -2.496749
 O        -2.114914         0.348743        -1.898671
 C        -0.896121         0.039362        -1.197855
 H         1.037947         0.293212         0.898527
 H        -3.091476         0.389476         0.578746
 H        -2.011555         0.355687         1.977692
 H        -0.949371         2.465952         1.400645
 H        -2.565542         3.804933         0.307344
 H        -3.113995         3.531339        -1.996837
 H        -2.456087         1.588541        -3.415127
 H        -0.854169         1.744977        -2.665320
 H        -1.080642        -1.040207        -0.849239
 H         0.001509         0.361617        -1.744331
