19
Iteration:  2250charge 0 multiplicity 1
 O         0.154962         0.112478         1.029015
 C        -0.998887         0.513155         0.325121
 C        -2.159832         0.617173         1.312830
 C        -1.425234         1.849375         0.704728
 C        -2.108987         2.822803        -0.279358
 C        -2.367275         2.776540        -1.627320
 C        -1.931535         1.657037        -2.587193
 O        -2.108207         0.332948        -2.098245
 C        -1.016073        -0.067828        -1.173029
 H         0.954756         0.564802         0.834841
 H        -3.154917         0.471549         0.889196
 H        -1.922364         0.315356         2.304943
 H        -0.697059         2.235629         1.421292
 H        -2.297087         3.810484         0.218049
 H        -2.878734         3.645802        -2.121831
 H        -2.491274         1.889664        -3.518225
 H        -0.913915         1.937249        -2.967179
 H        -1.085492        -1.171999        -1.164431
 H         0.009144         0.072275        -1.677515
