19
Iteration:  4322
 O         0.110938        -0.118514         1.095894
 C        -0.898291         0.557382         0.263268
 C        -2.120614         0.739885         1.005187
 C        -1.337196         2.029785         0.645894
 C        -2.217416         2.889135        -0.248398
 C        -2.535184         2.725013        -1.551563
 C        -1.923725         1.746490        -2.439256
 O        -2.000480         0.304986        -2.008686
 C        -0.968527        -0.101176        -1.156657
 H         0.895145         0.005735         0.437384
 H        -3.012055         0.587233         0.410950
 H        -2.194055         0.293621         1.982773
 H        -0.856619         2.670860         1.469016
 H        -2.538423         3.739206         0.237064
 H        -3.445080         3.319359        -1.877679
 H        -2.231537         1.658545        -3.488701
 H        -0.896573         1.961713        -2.666245
 H        -1.260761        -1.280108        -1.171101
 H        -0.030049        -0.058871        -1.723078
