19
Iteration:  1479
 O         0.115654         0.066246         1.065197
 C        -0.995033         0.544353         0.172071
 C        -2.087820         0.785336         1.114795
 C        -1.385770         1.959789         0.575587
 C        -2.186093         2.891360        -0.139939
 C        -2.418338         2.698936        -1.464826
 C        -1.866745         1.684198        -2.406837
 O        -2.031582         0.301493        -2.119122
 C        -1.087398        -0.244118        -1.223221
 H         1.006411         0.181300         0.644506
 H        -3.072636         0.655139         0.732737
 H        -2.047480         0.435468         2.127597
 H        -0.749295         2.575402         1.236318
 H        -2.541188         3.701847         0.527617
 H        -2.984901         3.411078        -1.952776
 H        -2.313761         1.705780        -3.336013
 H        -0.753975         2.087697        -2.529582
 H        -1.308859        -1.368817        -1.209916
 H        -0.072734        -0.187386        -1.690535
