19
Iteration:   673charge 0 multiplicity 1
 O         0.070974        -0.039746         1.046779
 C        -0.909526         0.533458         0.254052
 C        -2.125494         0.734132         1.094922
 C        -1.264566         1.940051         0.567617
 C        -2.222077         2.740038        -0.279217
 C        -2.513936         2.736954        -1.560556
 C        -1.909272         1.749591        -2.525368
 O        -2.006823         0.465240        -1.898476
 C        -0.970229        -0.175139        -1.147389
 H         0.919240         0.402303         0.644708
 H        -3.116279         0.721518         0.606208
 H        -2.002724         0.275832         2.079559
 H        -0.659608         2.505218         1.268073
 H        -2.735692         3.467336         0.314135
 H        -3.375413         3.312495        -1.960375
 H        -2.729931         1.807935        -3.318450
 H        -0.848558         2.008416        -2.949680
 H        -1.365140        -1.273724        -1.075633
 H         0.056152        -0.222444        -1.604566
