19
Iteration:   256charge 0 multiplicity 1
 O         0.131520        -0.048529         1.050762
 C        -0.945011         0.457660         0.197187
 C        -2.171664         0.717159         1.085048
 C        -1.372580         1.914752         0.571645
 C        -2.203424         2.846065        -0.171681
 C        -2.506823         2.740496        -1.475711
 C        -1.934376         1.748823        -2.407625
 O        -2.040285         0.332901        -2.028370
 C        -0.872906        -0.105752        -1.315119
 H         0.606117         0.813361         1.342537
 H        -3.253763         0.732769         0.905358
 H        -1.942614         0.509637         2.130771
 H        -0.629910         2.366938         1.146841
 H        -2.770165         3.590638         0.365747
 H        -3.034803         3.514775        -1.939785
 H        -2.466129         1.820933        -3.378121
 H        -0.851577         2.077011        -2.445979
 H        -0.956037        -1.195083        -1.365503
 H         0.103522         0.297596        -1.708773
