19
Iteration:  2929
 O         0.059927         0.003867         1.184959
 C        -0.846576         0.605184         0.278660
 C        -2.290043         0.544843         0.847520
 C        -1.407713         1.856744         0.653022
 C        -1.910523         2.871308        -0.289768
 C        -2.248851         2.713253        -1.536258
 C        -2.381782         1.562151        -2.532745
 O        -2.073713         0.265740        -1.880211
 C        -0.756758         0.227523        -1.192884
 H         1.055625         0.114608         0.970866
 H        -3.119134         0.481918         0.203525
 H        -2.501191         0.223553         1.833449
 H        -1.151838         2.386825         1.632840
 H        -1.655020         3.822426         0.042412
 H        -2.534700         3.604220        -2.012468
 H        -3.370679         1.399347        -2.870596
 H        -1.601659         1.801374        -3.281756
 H        -0.532082        -0.828008        -1.326747
 H        -0.078301         1.020235        -1.567512
