19
Iteration:  2799
 O         0.171529         0.015333         1.062763
 C        -0.886551         0.555869         0.272568
 C        -2.199106         0.519936         0.932816
 C        -1.591793         1.906507         0.666548
 C        -2.055354         2.912090        -0.301983
 C        -2.180478         2.770564        -1.643347
 C        -2.149001         1.611844        -2.461804
 O        -2.091654         0.337024        -1.794937
 C        -0.889702         0.059695        -1.162914
 H         0.992755         0.153732         0.567897
 H        -3.017109         0.233971         0.249639
 H        -2.271888         0.164744         1.953756
 H        -1.356035         2.372385         1.703841
 H        -2.361261         3.890977         0.031222
 H        -2.322596         3.702392        -2.177706
 H        -3.080022         1.531482        -3.012710
 H        -1.455568         1.811845        -3.178741
 H        -0.731827        -1.068062        -1.113535
 H        -0.064514         0.449800        -1.699379
