19
Iteration:  2047
 O         0.131524        -0.083245         1.198309
 C        -0.905143         0.497003         0.270246
 C        -2.208809         0.534353         0.936183
 C        -1.496922         1.909018         0.588640
 C        -1.966668         2.940920        -0.381715
 C        -2.327655         2.783757        -1.641074
 C        -2.227132         1.607278        -2.458752
 O        -2.058012         0.387804        -1.840921
 C        -0.792234         0.128144        -1.151169
 H         0.938799         0.116725         0.712765
 H        -3.046663         0.044998         0.543338
 H        -2.020424         0.182879         1.939748
 H        -1.180235         2.415852         1.535538
 H        -2.347379         3.848014         0.160962
 H        -2.677604         3.724121        -2.224960
 H        -3.267908         1.629494        -2.748552
 H        -1.630864         1.685452        -3.413058
 H        -0.681772        -0.987290        -1.127101
 H         0.020257         0.579490        -1.813450
