19
Iteration:  1802charge 0 multiplicity 1
 O         0.132940        -0.002845         0.995737
 C        -0.872621         0.571611         0.307067
 C        -2.247579         0.500307         0.989045
 C        -1.568334         1.875979         0.713898
 C        -2.038042         2.907535        -0.294860
 C        -2.145266         2.826608        -1.649385
 C        -2.233688         1.595487        -2.560053
 O        -2.095883         0.353733        -1.755376
 C        -0.818754         0.053309        -1.170729
 H         1.092299         0.146735         0.680181
 H        -3.120766         0.382887         0.340982
 H        -2.244703         0.216192         2.055201
 H        -1.200597         2.324964         1.638489
 H        -2.290993         3.885869         0.136130
 H        -2.331947         3.752489        -2.099591
 H        -3.131673         1.531217        -3.065812
 H        -1.445359         1.723095        -3.394920
 H        -0.681599        -1.097534        -1.226983
 H         0.036900         0.468218        -1.697839
