19
Iteration:  4206charge 0 multiplicity 1
 O         0.249515         0.261264         0.920754
 C        -0.975441         0.419833         0.286673
 C        -2.217368         0.532082         1.051517
 C        -1.583958         1.775481         0.598362
 C        -2.141980         2.878820        -0.319653
 C        -2.136178         2.800664        -1.600499
 C        -1.895538         1.636502        -2.397396
 O        -2.140360         0.404195        -1.853762
 C        -1.077229        -0.134323        -1.144183
 H         1.025596         0.770597         0.452226
 H        -3.142464         0.124244         0.677590
 H        -2.220397         0.481457         2.115509
 H        -1.062554         2.120151         1.472138
 H        -2.564256         3.747299         0.367283
 H        -2.666461         3.641326        -2.083308
 H        -2.335318         1.725321        -3.409308
 H        -0.880286         1.784940        -2.633602
 H        -1.229942        -1.208792        -0.992447
 H        -0.154628         0.180211        -1.514621
