19
Iteration:   125charge 0 multiplicity 1
 O         0.239697         0.083188         0.961719
 C        -0.902422         0.562489         0.360802
 C        -2.171355         0.243706         0.918999
 C        -1.691095         1.798801         0.644552
 C        -1.813359         2.948310        -0.321899
 C        -2.211211         2.883531        -1.588890
 C        -2.298754         1.678556        -2.471951
 O        -2.055164         0.313337        -1.923385
 C        -0.896321         0.194927        -1.083320
 H        -0.014744        -0.314129         1.794764
 H        -2.899858        -0.203505         0.223856
 H        -2.323951         0.188093         2.030055
 H        -1.505029         2.151814         1.662876
 H        -2.042775         3.868015         0.249700
 H        -2.444299         3.899974        -2.021850
 H        -3.348832         1.650898        -2.886091
 H        -1.733064         1.829888        -3.345042
 H        -0.618261        -0.881511        -1.116942
 H        -0.010847         0.664652        -1.487997
