19
Iteration:   120
 O         0.223941         0.061296         0.896486
 C        -0.924450         0.593103         0.372733
 C        -2.207354         0.305637         0.973883
 C        -1.716819         1.801931         0.687486
 C        -1.796026         2.927033        -0.273536
 C        -2.211145         2.886998        -1.619183
 C        -2.338492         1.671171        -2.480674
 O        -2.004999         0.314167        -1.939105
 C        -0.841027         0.190119        -1.080105
 H        -0.072153        -0.369265         1.722028
 H        -3.006221        -0.196777         0.435468
 H        -2.214982         0.042869         2.017118
 H        -1.536778         2.203318         1.696836
 H        -2.052663         3.856055         0.259823
 H        -2.465851         3.819521        -2.077284
 H        -3.319676         1.509083        -2.912223
 H        -1.698067         1.837866        -3.459626
 H        -0.634386        -0.869554        -1.195655
 H         0.118205         0.572852        -1.555653
