19
Iteration:  3780charge 0 multiplicity 1
 O         0.214292         0.064499         1.038468
 C        -0.957854         0.546703         0.289915
 C        -2.217960         0.532623         1.071566
 C        -1.553432         1.907362         0.794581
 C        -2.048169         2.847919        -0.285060
 C        -2.216405         2.823416        -1.630995
 C        -2.040089         1.627501        -2.551713
 O        -2.101345         0.308644        -1.942232
 C        -0.982768         0.029519        -1.198466
 H         1.010845         0.561412         0.771691
 H        -3.175140         0.417438         0.533457
 H        -2.273128         0.054004         2.047728
 H        -0.973713         2.390848         1.519810
 H        -2.547626         3.733617         0.251856
 H        -2.839762         3.564403        -2.071058
 H        -2.743305         1.620904        -3.421030
 H        -1.009194         1.558739        -3.086412
 H        -0.862439        -1.071629        -1.090239
 H        -0.008677         0.339319        -1.647369
