19
Iteration:  1305charge 0 multiplicity 1
 O         0.052077        -0.103689         1.095402
 C        -0.940783         0.577404         0.263597
 C        -2.278837         0.503165         0.918034
 C        -1.500106         1.932959         0.734414
 C        -1.807500         2.886491        -0.362073
 C        -2.230304         2.678629        -1.632332
 C        -2.408417         1.511864        -2.432907
 O        -2.011466         0.341407        -1.858179
 C        -0.769433         0.325666        -1.188722
 H         0.853862         0.464705         1.239526
 H        -3.149855         0.400216         0.316213
 H        -2.172349         0.180937         1.938384
 H        -0.941503         2.232606         1.672877
 H        -1.630405         3.973419        -0.103809
 H        -2.387014         3.603721        -2.149931
 H        -3.515727         1.408538        -2.743982
 H        -1.864903         1.591074        -3.413384
 H        -0.403548        -0.724301        -1.271384
 H        -0.031210         0.982666        -1.652134
