19
Iteration:  3231charge 0 multiplicity 1
 O         0.214365         0.028905         1.146175
 C        -0.918961         0.532273         0.336880
 C        -2.309686         0.397884         0.906649
 C        -1.505818         1.862454         0.658019
 C        -1.816982         2.869593        -0.293584
 C        -2.293819         2.790341        -1.589015
 C        -2.349037         1.664647        -2.602181
 O        -2.081407         0.355258        -1.921822
 C        -0.874071         0.136767        -1.077286
 H         1.009862         0.603106         0.931525
 H        -2.940311        -0.099719         0.229569
 H        -2.411270         0.293805         1.971629
 H        -1.331933         2.272842         1.730342
 H        -1.551042         3.850034         0.010807
 H        -2.275333         3.670130        -2.165771
 H        -3.270341         1.518681        -3.078476
 H        -1.521567         1.803495        -3.283981
 H        -0.644828        -0.944419        -1.222455
 H        -0.186991         0.754056        -1.556873
