19
Iteration:  3601charge 0 multiplicity 1
 O         0.134142         0.071274         1.053217
 C        -0.915648         0.519577         0.197348
 C        -2.237222         0.524107         1.004250
 C        -1.616570         1.820603         0.651827
 C        -2.020591         2.940786        -0.258341
 C        -2.164042         2.853167        -1.548944
 C        -2.103748         1.578032        -2.485854
 O        -2.106311         0.335556        -1.817708
 C        -0.869484         0.028225        -1.246952
 H         0.939345         0.592251         0.806183
 H        -3.126878         0.067017         0.504268
 H        -1.918623         0.164882         1.966218
 H        -1.040095         2.233238         1.629156
 H        -2.279049         3.966711         0.136299
 H        -2.426595         3.860973        -2.066588
 H        -3.048863         1.442968        -3.066503
 H        -1.307015         1.510010        -3.204078
 H        -0.826107        -1.121664        -1.171285
 H        -0.102135         0.520254        -1.832856
