19
Iteration:  1116
 O         0.220255         0.211161         0.812813
 C        -1.060508         0.528868         0.261350
 C        -2.202803         0.626776         1.176200
 C        -1.453358         1.901905         0.675568
 C        -2.101718         2.846231        -0.224640
 C        -2.366293         2.730642        -1.579950
 C        -1.728673         1.688076        -2.457062
 O        -2.041721         0.389944        -1.941624
 C        -1.190076        -0.175233        -1.058985
 H         0.835630        -0.000631         0.012746
 H        -3.150909         0.434265         0.678175
 H        -2.064549         0.167137         2.214122
 H        -0.633152         2.136277         1.279312
 H        -2.734813         3.554033         0.223252
 H        -3.251897         3.180353        -2.076682
 H        -2.171337         1.736332        -3.497324
 H        -0.623978         1.823279        -2.594994
 H        -1.546936        -1.250517        -0.974649
 H        -0.087552        -0.230736        -1.489694
