19
Iteration:  3993
 O         0.194852         0.059732         1.012628
 C        -0.925680         0.515407         0.287863
 C        -2.244135         0.479095         0.985334
 C        -1.578644         1.857233         0.719721
 C        -2.084648         2.911489        -0.243435
 C        -2.125033         2.872803        -1.635378
 C        -2.129892         1.612527        -2.501460
 O        -2.095219         0.297583        -1.895584
 C        -0.918538         0.037052        -1.141144
 H         0.962468         0.731426         0.811895
 H        -3.064264         0.117228         0.359027
 H        -2.268798         0.127646         2.019227
 H        -1.174877         2.344320         1.607595
 H        -2.280372         3.828415         0.197949
 H        -2.171477         3.794815        -2.142741
 H        -3.061661         1.612622        -3.078832
 H        -1.308311         1.759089        -3.260734
 H        -0.918041        -1.003077        -1.010442
 H        -0.045904         0.458614        -1.806414
