19
Iteration:   447
 O         0.157250        -0.115092         1.122399
 C        -0.958449         0.431514         0.368571
 C        -2.198881         0.722267         0.978477
 C        -1.279374         1.905700         0.643466
 C        -2.028587         2.893051        -0.258237
 C        -2.437941         2.762777        -1.547378
 C        -2.241086         1.601963        -2.561119
 O        -1.949358         0.324301        -2.023997
 C        -0.850249         0.155644        -1.218577
 H         0.303565         0.418818         1.862660
 H        -3.019024         0.507665         0.297641
 H        -2.485507         0.456936         1.995753
 H        -0.865396         2.474906         1.499013
 H        -2.538802         3.577077         0.383984
 H        -3.276204         3.379714        -1.945978
 H        -3.242968         1.558503        -3.009767
 H        -1.508267         1.838035        -3.295495
 H        -0.598481        -0.957979        -1.271808
 H         0.038387         0.636345        -1.733567
