19
Iteration:  4205
 O         0.252116         0.254326         0.922572
 C        -0.975254         0.417000         0.285569
 C        -2.220260         0.538795         1.057466
 C        -1.587618         1.782339         0.589345
 C        -2.131576         2.874165        -0.309912
 C        -2.149126         2.797462        -1.602659
 C        -1.898668         1.643754        -2.395861
 O        -2.134028         0.401973        -1.854242
 C        -1.079166        -0.137719        -1.145795
 H         1.013262         0.748416         0.494068
 H        -3.145024         0.133554         0.657763
 H        -2.224497         0.492653         2.120019
 H        -1.051154         2.154944         1.483833
 H        -2.588708         3.766076         0.377317
 H        -2.673029         3.679551        -2.103088
 H        -2.350787         1.686051        -3.417877
 H        -0.867513         1.754896        -2.659607
 H        -1.194331        -1.187532        -1.042101
 H        -0.124168         0.203279        -1.519813
