19
Iteration:  1165
 O         0.289034         0.169756         0.895835
 C        -0.941930         0.471288         0.261890
 C        -2.032877         0.485585         1.194745
 C        -1.650435         1.856593         0.559059
 C        -2.299058         2.857453        -0.310534
 C        -2.137052         2.896394        -1.613840
 C        -1.730509         1.652454        -2.504577
 O        -2.257092         0.435096        -1.857707
 C        -1.153728        -0.186163        -1.061009
 H         0.992391         0.710534         0.622687
 H        -2.937812         0.118981         0.722505
 H        -1.865035         0.301265         2.243148
 H        -1.273980         2.342024         1.529615
 H        -2.698433         3.870295         0.098517
 H        -2.494778         3.722283        -2.172596
 H        -2.366989         1.710912        -3.421222
 H        -0.708781         1.576576        -2.875103
 H        -1.529813        -1.175735        -0.917608
 H        -0.100152        -0.332406        -1.527012
