19
Iteration:   404
 O         0.178425         0.033413         0.976596
 C        -0.913718         0.528174         0.243660
 C        -2.240772         0.530511         0.897659
 C        -1.513722         1.883960         0.637248
 C        -2.084635         2.985034        -0.264074
 C        -2.367296         2.817258        -1.572057
 C        -1.995588         1.582458        -2.363193
 O        -2.090900         0.322820        -1.792331
 C        -0.882823        -0.016854        -1.185902
 H         0.945790         0.452220         0.582161
 H        -3.118339         0.193137         0.320607
 H        -2.318791         0.170970         1.930063
 H        -1.102583         2.266143         1.616633
 H        -2.471223         3.909896         0.147738
 H        -2.770459         3.704576        -2.126893
 H        -2.746145         1.637903        -3.174937
 H        -1.050228         1.761155        -2.879569
 H        -0.576367        -1.094762        -1.222022
 H        -0.026196         0.489896        -1.632922
