19
Iteration:   458
 O         0.189548        -0.096938         1.042572
 C        -0.945583         0.389459         0.368090
 C        -2.325786         0.751430         1.065374
 C        -1.339902         1.901825         0.620071
 C        -2.017078         2.867496        -0.234688
 C        -2.407231         2.788185        -1.540388
 C        -2.321442         1.616609        -2.563859
 O        -1.913376         0.267912        -2.083689
 C        -0.760319         0.137222        -1.159726
 H         0.219640         0.397469         1.882402
 H        -3.156805         0.937024         0.399122
 H        -2.566173         0.529770         2.117348
 H        -0.606854         2.258787         1.373948
 H        -2.318403         3.797133         0.197154
 H        -3.176378         3.585712        -1.685271
 H        -3.230704         1.390639        -3.149754
 H        -1.632530         1.910085        -3.338452
 H        -0.438596        -0.949788        -1.330182
 H         0.093266         0.886657        -1.252719
