19
Iteration:  2132
 O         0.121207        -0.069511         1.070164
 C        -0.938220         0.528174         0.278735
 C        -2.295524         0.563871         1.007985
 C        -1.578621         1.904826         0.699999
 C        -1.955256         2.937686        -0.307106
 C        -2.087221         2.796833        -1.631827
 C        -2.451218         1.477889        -2.388142
 O        -1.949893         0.317077        -1.943945
 C        -0.780507         0.157154        -1.230874
 H         0.778835         0.628587         1.188407
 H        -3.202823         0.459876         0.421463
 H        -2.302766         0.401708         2.073972
 H        -1.083012         2.499235         1.504717
 H        -1.754781         3.983631         0.050076
 H        -2.082877         3.748160        -2.323763
 H        -3.548528         1.353773        -2.645128
 H        -2.031767         1.669697        -3.347729
 H        -0.375180        -0.920762        -1.345654
 H         0.087072         0.726109        -1.516298
