19
Iteration:  1699
 O         0.136183        -0.071180         1.050115
 C        -0.965102         0.490402         0.262814
 C        -2.330868         0.639773         0.857204
 C        -1.583059         1.953168         0.775598
 C        -1.822551         3.011072        -0.266459
 C        -2.274230         2.778581        -1.548294
 C        -2.460549         1.433059        -2.369729
 O        -1.903008         0.264856        -1.980991
 C        -0.718511         0.167488        -1.185611
 H         0.944415         0.294344         0.785460
 H        -3.244520         0.824106         0.272611
 H        -2.652436         0.351245         1.898260
 H        -1.003093         2.212524         1.632869
 H        -1.619895         3.952852         0.197677
 H        -2.184781         3.640941        -2.284827
 H        -3.517633         1.255360        -2.625575
 H        -1.969621         1.776306        -3.350344
 H        -0.465036        -0.978724        -1.145847
 H         0.028775         0.800169        -1.566838
