19
Iteration:  2257
 O         0.152032         0.111710         1.010567
 C        -1.013913         0.454419         0.333215
 C        -2.124443         0.599767         1.259717
 C        -1.435939         1.877219         0.639008
 C        -2.060725         2.865660        -0.289042
 C        -2.408109         2.733910        -1.586799
 C        -1.885200         1.670409        -2.602428
 O        -2.092339         0.388561        -2.075558
 C        -1.052030        -0.104927        -1.098441
 H         0.826102         0.573545         0.496169
 H        -3.219196         0.412865         0.920557
 H        -1.923993         0.330960         2.350303
 H        -0.736812         2.360508         1.384283
 H        -2.667556         3.708882         0.161124
 H        -2.806088         3.655799        -1.914970
 H        -2.465285         1.672793        -3.508413
 H        -0.831768         1.797045        -2.864418
 H        -1.018214        -1.172305        -1.104954
 H        -0.166756         0.415699        -1.522961
