19
Iteration:  1798
 O         0.151079         0.002427         1.019651
 C        -0.887088         0.545814         0.343901
 C        -2.242285         0.422611         0.965993
 C        -1.553308         1.904447         0.714527
 C        -1.993017         2.925974        -0.339315
 C        -2.163273         2.820999        -1.660686
 C        -2.214123         1.597645        -2.552253
 O        -2.131499         0.359455        -1.770359
 C        -0.799545         0.078853        -1.150363
 H         1.006518         0.161107         0.643867
 H        -3.152422         0.295962         0.406197
 H        -2.374206         0.199572         1.995267
 H        -1.144770         2.347910         1.659023
 H        -2.192608         3.903677         0.121280
 H        -2.485465         3.853301        -2.087051
 H        -3.265627         1.532448        -3.060643
 H        -1.493102         1.674266        -3.410006
 H        -0.788356        -1.074499        -1.230095
 H        -0.004752         0.676895        -1.656741
