19
Iteration:  4799
 O         0.145664        -0.026524         0.986772
 C        -0.935199         0.593323         0.322468
 C        -2.319467         0.546297         1.020740
 C        -1.581274         1.874502         0.723731
 C        -1.987370         2.854811        -0.265036
 C        -2.168905         2.792254        -1.585978
 C        -2.197808         1.609560        -2.467520
 O        -2.067425         0.265351        -1.914345
 C        -0.782395         0.135597        -1.213467
 H         0.896912         0.636711         0.981836
 H        -3.249902         0.300645         0.452824
 H        -2.395725         0.236979         2.080078
 H        -1.037447         2.342328         1.588940
 H        -2.255994         3.809907         0.239593
 H        -2.139538         3.629254        -2.214765
 H        -3.148123         1.641294        -2.938251
 H        -1.481839         1.803261        -3.407994
 H        -0.523119        -0.946329        -1.280953
 H        -0.063801         0.759117        -1.852488
