19
Iteration:  3815
 O         0.297018         0.224213         0.897964
 C        -0.952697         0.429374         0.308217
 C        -2.237714         0.483645         1.146170
 C        -1.653621         1.762472         0.636488
 C        -2.173525         2.865322        -0.316880
 C        -2.223718         2.922092        -1.687996
 C        -1.857982         1.650125        -2.425087
 O        -2.132367         0.409462        -1.846145
 C        -1.054732        -0.197970        -1.101372
 H         0.850917         0.867913         0.358519
 H        -3.127991         0.224324         0.571026
 H        -2.244038         0.264619         2.229366
 H        -0.930394         2.288341         1.355265
 H        -2.315969         3.890939         0.270359
 H        -2.374214         3.921448        -2.232123
 H        -2.342710         1.765711        -3.475653
 H        -0.691462         1.726239        -2.543106
 H        -1.292103        -1.238646        -1.168095
 H        -0.138668         0.088877        -1.682766
