19
Iteration:  4172
 O         0.135944        -0.043155         1.035340
 C        -0.925066         0.523728         0.285535
 C        -2.168105         0.586010         1.075903
 C        -1.449743         1.950662         0.687198
 C        -2.109841         2.864568        -0.275896
 C        -2.358656         2.799384        -1.621688
 C        -2.066640         1.662760        -2.544808
 O        -2.022801         0.346797        -1.964982
 C        -0.951570        -0.005735        -1.103911
 H         1.034117         0.457763         0.957930
 H        -3.121620         0.469563         0.575250
 H        -2.038482         0.293794         2.100288
 H        -0.941850         2.451757         1.532665
 H        -2.494158         3.908232         0.079904
 H        -2.948245         3.591051        -2.223083
 H        -2.658156         1.442291        -3.441819
 H        -1.081451         1.762030        -2.850723
 H        -1.005256        -1.063776        -1.114406
 H        -0.015910         0.169153        -1.545810
