19
Iteration:  4177charge 0 multiplicity 1
 O         0.175290        -0.000987         1.018508
 C        -0.942886         0.491772         0.286351
 C        -2.203077         0.578433         1.087308
 C        -1.446216         1.907988         0.692646
 C        -2.148607         2.901433        -0.243354
 C        -2.352972         2.827071        -1.690721
 C        -2.044917         1.668233        -2.539503
 O        -2.066405         0.344131        -1.944678
 C        -0.931560        -0.024950        -1.104627
 H         0.971938         0.496050         0.902843
 H        -3.184328         0.486716         0.612131
 H        -2.071372         0.220634         2.126566
 H        -0.870137         2.346165         1.497607
 H        -2.338052         3.847323         0.134178
 H        -2.885591         3.593645        -2.155894
 H        -2.573931         1.488235        -3.489760
 H        -0.890775         1.831243        -2.896885
 H        -0.995587        -1.203650        -0.930837
 H         0.118355         0.122577        -1.615256
