19
Iteration:  1571
 O         0.189683         0.261568         1.008888
 C        -1.018925         0.512083         0.211905
 C        -2.163772         0.443745         1.167618
 C        -1.552150         1.824068         0.609975
 C        -2.057373         2.943882        -0.235714
 C        -2.136597         2.854607        -1.542158
 C        -1.930687         1.611154        -2.503479
 O        -2.159552         0.335082        -1.934736
 C        -1.094661        -0.192657        -1.201630
 H         0.933700         0.740900         0.498252
 H        -3.230882         0.268761         0.901095
 H        -2.041658         0.315180         2.245909
 H        -0.929166         2.185494         1.412228
 H        -2.319352         3.892947         0.264504
 H        -2.512860         3.810699        -2.077677
 H        -2.699233         1.853689        -3.334560
 H        -0.893710         1.564548        -3.001963
 H        -0.971429        -1.206219        -1.086101
 H        -0.187877        -0.013514        -1.861582
