19
Iteration:  4760
 O         0.035460        -0.025898         1.095625
 C        -0.968530         0.550156         0.248225
 C        -2.280905         0.619261         1.075281
 C        -1.347388         1.921294         0.665449
 C        -1.950178         2.883689        -0.282889
 C        -2.488154         2.707331        -1.475862
 C        -2.185626         1.683307        -2.505810
 O        -1.891484         0.313156        -2.063523
 C        -0.837307        -0.002817        -1.185541
 H         0.979698         0.098403         0.705140
 H        -3.225846         0.695569         0.456032
 H        -2.329810         0.324743         2.168187
 H        -0.738461         2.424606         1.463952
 H        -2.254075         3.789340         0.179925
 H        -2.977813         3.687341        -1.852826
 H        -3.104921         1.460697        -3.156930
 H        -1.291253         2.090576        -3.081327
 H        -0.695378        -1.122490        -1.161904
 H         0.216655         0.521376        -1.477981
