19
Iteration:   772charge 0 multiplicity 1
 O         0.303336         0.252486         0.953707
 C        -0.898396         0.460232         0.269175
 C        -2.240565         0.476803         1.175467
 C        -1.584759         1.769985         0.549626
 C        -2.120624         2.917208        -0.244276
 C        -2.126563         2.895496        -1.595076
 C        -1.904449         1.605723        -2.513058
 O        -2.287973         0.331354        -1.882563
 C        -1.036614        -0.127749        -1.167135
 H         0.809388         1.077251         0.831103
 H        -3.224002         0.148751         0.821483
 H        -2.102769         0.440826         2.282409
 H        -1.213426         2.224185         1.444324
 H        -2.107797         3.829648         0.225496
 H        -2.422856         3.788837        -2.106054
 H        -2.608176         1.752137        -3.371721
 H        -0.915307         1.637760        -2.838861
 H        -1.218956        -1.243887        -1.157384
 H        -0.116944        -0.049393        -1.744061
