19
Iteration:  1534charge 0 multiplicity 1
 O         0.378322        -0.004872         0.882332
 C        -0.931816         0.518433         0.314081
 C        -2.218000         0.553786         1.217154
 C        -1.591815         1.875445         0.624006
 C        -2.255386         2.799842        -0.304135
 C        -2.283037         2.838475        -1.626230
 C        -1.774073         1.696964        -2.564533
 O        -2.162093         0.421258        -1.874406
 C        -1.138469        -0.083044        -1.091804
 H         1.149133         0.474746         0.389482
 H        -3.184515         0.512237         0.728145
 H        -2.272839         0.761877         2.305487
 H        -1.054501         2.485852         1.373866
 H        -2.525691         3.652735         0.317781
 H        -2.481416         3.720563        -2.134680
 H        -2.221761         1.517278        -3.453767
 H        -0.648754         1.816715        -2.771876
 H        -1.577255        -1.135730        -0.903088
 H        -0.147700         0.048424        -1.579072
