19
Iteration:    25
 O         0.251288        -0.081200         1.084185
 C        -0.863576         0.450696         0.321435
 C        -2.298337         0.536424         0.785970
 C        -1.424370         1.866585         0.538809
 C        -2.069085         2.993240        -0.279934
 C        -2.494856         2.922761        -1.512913
 C        -2.192434         1.694370        -2.429142
 O        -1.937731         0.377159        -1.830672
 C        -0.761478         0.027386        -1.134520
 H         0.423988        -1.041309         0.746404
 H        -3.177407         0.513103         0.118424
 H        -2.624679         0.405120         1.803827
 H        -1.253754         2.284124         1.556791
 H        -2.484045         3.719857         0.481649
 H        -3.327367         3.644677        -1.899671
 H        -3.192172         1.464695        -2.914488
 H        -1.489596         1.874492        -3.308750
 H        -0.568988        -1.068063        -1.276324
 H         0.129699         0.495321        -1.611225
