19
Iteration:  2796
 O         0.163886         0.024030         1.060695
 C        -0.871136         0.535274         0.294878
 C        -2.174993         0.528291         0.930752
 C        -1.582152         1.895449         0.686674
 C        -2.106062         2.901182        -0.298128
 C        -2.165155         2.774204        -1.646613
 C        -2.142572         1.611460        -2.457646
 O        -2.103536         0.336324        -1.822038
 C        -0.891560         0.057417        -1.139309
 H         1.017654         0.138873         0.510207
 H        -3.097610         0.273342         0.258491
 H        -2.223298         0.155945         1.993674
 H        -1.279157         2.385486         1.652388
 H        -2.353335         3.954900        -0.011894
 H        -2.335424         3.707894        -2.336973
 H        -3.109198         1.635160        -2.955803
 H        -1.334707         1.854498        -3.270017
 H        -0.868903        -1.076967        -1.137566
 H         0.007123         0.483138        -1.734146
