19
Iteration:   445
 O         0.146306        -0.121210         1.126909
 C        -0.942309         0.458348         0.348841
 C        -2.195106         0.714542         0.969399
 C        -1.281780         1.909621         0.644252
 C        -2.023461         2.885934        -0.256811
 C        -2.448936         2.744303        -1.557602
 C        -2.221156         1.613615        -2.547035
 O        -1.965262         0.332519        -2.014253
 C        -0.850513         0.144732        -1.212437
 H         0.326505         0.452871         1.896925
 H        -2.999488         0.454464         0.292504
 H        -2.406663         0.442383         1.985303
 H        -0.894207         2.474474         1.553962
 H        -2.563167         3.594702         0.400204
 H        -3.276062         3.420256        -2.002917
 H        -3.274612         1.519299        -2.976459
 H        -1.426934         1.849144        -3.314566
 H        -0.642741        -0.967817        -1.293802
 H         0.017804         0.638609        -1.787194
