19
Iteration:  1760
 O         0.179360         0.060748         1.158534
 C        -0.907864         0.431941         0.315491
 C        -2.283871         0.484135         0.933168
 C        -1.601753         1.813490         0.711580
 C        -1.768714         2.781575        -0.344224
 C        -2.247042         2.822576        -1.600476
 C        -2.366561         1.594301        -2.536826
 O        -2.198229         0.348730        -1.845322
 C        -0.709690         0.207177        -1.228845
 H         0.717136         0.831505         1.093889
 H        -3.103904         0.297415         0.215859
 H        -2.453877         0.454789         2.030394
 H        -1.158367         2.230776         1.598878
 H        -1.400121         3.765448        -0.041401
 H        -2.227037         3.697520        -2.138308
 H        -3.331420         1.574975        -2.994425
 H        -1.675109         1.617768        -3.350537
 H        -0.240380        -0.669515        -1.471978
 H        -0.019848         0.934695        -1.718692
