19
Iteration:   760
 O         0.349674         0.302602         0.916927
 C        -0.966644         0.401926         0.277763
 C        -2.182016         0.573799         1.112488
 C        -1.596034         1.804840         0.676304
 C        -2.150854         2.869261        -0.224953
 C        -2.068238         2.865698        -1.575365
 C        -1.969638         1.658842        -2.485993
 O        -2.198936         0.341006        -1.956047
 C        -1.109976        -0.246999        -1.158403
 H         0.658335         1.254247         1.128003
 H        -3.080142         0.393751         0.524110
 H        -2.243227         0.330423         2.196271
 H        -0.860277         2.255397         1.340800
 H        -2.589457         3.659858         0.337707
 H        -2.233631         3.755847        -2.168980
 H        -2.672508         1.722868        -3.323436
 H        -1.052664         1.566523        -2.981139
 H        -1.410174        -1.274288        -0.907644
 H        -0.219834        -0.169180        -1.761774
