19
Iteration:   850charge 0 multiplicity 1
 O        -0.002539        -0.030950         1.119363
 C        -0.981656         0.560787         0.187845
 C        -2.215840         0.637531         1.014257
 C        -1.344951         1.940910         0.657988
 C        -1.923758         2.934497        -0.243497
 C        -2.435864         2.759023        -1.538225
 C        -2.244316         1.546819        -2.504284
 O        -1.973736         0.253775        -1.938905
 C        -0.772628         0.081272        -1.206928
 H         0.938232         0.407907         1.043628
 H        -3.219805         0.342598         0.589970
 H        -2.021440         0.180255         1.992851
 H        -0.655906         2.335701         1.420208
 H        -1.999650         3.902978         0.193447
 H        -2.880212         3.708950        -1.948386
 H        -3.184932         1.332107        -3.174669
 H        -1.571298         1.978089        -3.249688
 H        -0.583826        -1.064002        -1.301738
 H         0.009190         0.693194        -1.632308
