19
Iteration:   516charge 0 multiplicity 1
 O         0.269649         0.020205         0.998881
 C        -0.905696         0.544711         0.318592
 C        -2.298721         0.603442         0.887507
 C        -1.536297         1.867899         0.741371
 C        -2.015711         2.856036        -0.275978
 C        -2.109048         2.796877        -1.581350
 C        -2.303227         1.516170        -2.444557
 O        -2.088478         0.228802        -1.895835
 C        -0.832611         0.240923        -1.207566
 H         0.134078         0.097311         1.945267
 H        -3.076877         0.439401         0.113855
 H        -2.566774         0.204563         1.885235
 H        -1.311866         2.378354         1.645755
 H        -2.114832         3.881222         0.163994
 H        -2.152232         3.725049        -2.090016
 H        -3.312268         1.457275        -2.818521
 H        -1.677422         1.599990        -3.292234
 H        -0.484694        -0.758624        -1.435443
 H        -0.125278         0.792112        -1.800200
