19
Iteration:  2502charge 0 multiplicity 1
 O         0.088893        -0.005966         0.951627
 C        -0.987620         0.492292         0.319366
 C        -2.352327         0.693085         1.030439
 C        -1.508846         1.857057         0.748805
 C        -1.905846         2.795116        -0.309804
 C        -2.211776         2.707757        -1.598919
 C        -2.322838         1.454043        -2.450484
 O        -2.013558         0.267721        -1.888189
 C        -0.697835         0.335902        -1.175753
 H         0.891199         0.582924         0.736224
 H        -3.143065         0.585356         0.302484
 H        -2.644738         0.301794         1.957366
 H        -0.884326         2.239244         1.562512
 H        -1.690303         3.794500        -0.018279
 H        -2.295856         3.681691        -2.098991
 H        -3.382254         1.386564        -2.782453
 H        -1.743652         1.642456        -3.345720
 H        -0.166034        -0.599191        -1.331199
 H        -0.118650         1.081024        -1.532571
