19
Iteration:  3262charge 0 multiplicity 1
 O         0.089759         0.034904         1.088190
 C        -0.983721         0.556267         0.215827
 C        -2.324806         0.547782         0.896370
 C        -1.525123         1.878535         0.771317
 C        -1.888104         2.921692        -0.255217
 C        -2.119162         2.774175        -1.567527
 C        -2.394372         1.588875        -2.390079
 O        -1.981064         0.247098        -1.958048
 C        -0.735183         0.099442        -1.245346
 H         0.915889         0.525505         0.901049
 H        -3.107320         0.330207         0.227175
 H        -2.541164         0.073565         1.852042
 H        -1.038625         2.340453         1.656941
 H        -1.893515         3.953547         0.047261
 H        -2.324082         3.665124        -2.010246
 H        -3.574357         1.469198        -2.351164
 H        -2.044245         1.688411        -3.434595
 H        -0.297273        -0.956412        -1.282740
 H        -0.000528         0.909849        -1.567114
