19
Iteration:   220charge 0 multiplicity 1
 O         0.188273        -0.038172         0.924021
 C        -0.998947         0.537317         0.345338
 C        -2.256617         0.641025         1.153408
 C        -1.453922         1.949873         0.808030
 C        -2.103164         2.863304        -0.183477
 C        -2.376872         2.630917        -1.513211
 C        -2.083515         1.669515        -2.543963
 O        -1.922715         0.343895        -2.146153
 C        -0.934442         0.073103        -1.141702
 H         0.851512        -0.221136         0.168711
 H        -3.227682         0.507834         0.655851
 H        -2.118297         0.309800         2.201052
 H        -0.940609         2.598972         1.562780
 H        -2.497948         3.840574         0.270018
 H        -2.878668         3.576857        -1.911846
 H        -2.746662         1.705009        -3.399190
 H        -1.159977         2.099494        -3.066961
 H        -0.900527        -1.026864        -1.052401
 H         0.047885         0.252773        -1.744686
