19
Iteration:  2559charge 0 multiplicity 1
 O         0.153127        -0.008934         1.175261
 C        -0.861292         0.492316         0.252770
 C        -2.265928         0.542252         0.849053
 C        -1.491928         1.919914         0.692604
 C        -1.993270         2.911948        -0.312782
 C        -2.282968         2.852334        -1.636575
 C        -2.270058         1.596997        -2.515951
 O        -2.052336         0.335397        -1.797792
 C        -0.773800         0.036430        -1.222363
 H         0.930914         0.588067         1.057663
 H        -3.281801         0.324544         0.339721
 H        -2.260615         0.274961         1.991920
 H        -0.881144         2.284930         1.659766
 H        -2.077908         3.971073         0.059127
 H        -2.659127         3.844855        -2.055549
 H        -3.347039         1.353243        -2.820221
 H        -1.752743         1.590325        -3.424061
 H        -0.830908        -1.076139        -1.089178
 H         0.008514         0.311514        -1.810154
