19
Iteration:  3033
 O         0.146675         0.164182         0.954736
 C        -0.979655         0.580033         0.159459
 C        -2.126080         0.599285         1.207992
 C        -1.522277         1.860920         0.671025
 C        -2.180272         2.812964        -0.231736
 C        -2.215686         2.874191        -1.552923
 C        -1.919326         1.665566        -2.405809
 O        -2.118762         0.326629        -2.016129
 C        -1.036316        -0.221382        -1.165892
 H         0.900981         0.521475         0.505856
 H        -3.006584         0.287981         0.596467
 H        -2.110939         0.370074         2.337046
 H        -0.769381         2.371302         1.238866
 H        -2.369521         3.794102         0.312676
 H        -2.656611         3.684352        -2.184739
 H        -2.397378         1.689441        -3.283370
 H        -0.880343         1.800203        -2.796992
 H        -1.194455        -1.328717        -1.114848
 H        -0.029774        -0.179389        -1.591739
