19
Iteration:   111charge 0 multiplicity 1
 O         0.238797         0.029357         0.839016
 C        -0.975253         0.573847         0.322776
 C        -2.317934         0.419422         1.055927
 C        -1.707895         1.826033         0.802873
 C        -1.901908         2.879133        -0.269712
 C        -2.187274         2.853843        -1.582304
 C        -2.348499         1.615786        -2.507652
 O        -1.925624         0.364123        -1.958122
 C        -0.753639         0.175501        -1.159917
 H         0.042349        -0.495947         1.630485
 H        -3.184229        -0.067530         0.589723
 H        -2.083367         0.055628         2.052656
 H        -1.413480         2.305483         1.770878
 H        -1.789108         3.929578         0.153817
 H        -2.405986         3.758090        -2.180738
 H        -3.388660         1.420785        -2.814293
 H        -1.708180         1.819243        -3.379603
 H        -0.688095        -0.886698        -1.064003
 H         0.112310         0.667772        -1.583806
