19
Iteration:  4425charge 0 multiplicity 1
 O         0.220598         0.146265         0.994640
 C        -0.945804         0.483065         0.333312
 C        -2.331348         0.386163         0.956153
 C        -1.711270         1.799988         0.661500
 C        -1.940400         2.897871        -0.322906
 C        -1.979201         2.817875        -1.642217
 C        -2.232386         1.586719        -2.459882
 O        -2.113969         0.346385        -1.777154
 C        -0.882190         0.150019        -1.161949
 H         0.910510         0.643356         0.586301
 H        -3.026302        -0.154624         0.254257
 H        -2.478742         0.093994         2.028386
 H        -1.328178         2.164173         1.605574
 H        -1.854334         4.048114         0.154773
 H        -2.021645         3.790092        -2.178280
 H        -3.248270         1.423172        -2.882464
 H        -1.459625         1.516060        -3.237209
 H        -0.628087        -0.864161        -1.411067
 H        -0.116601         0.915798        -1.537238
