19
Iteration:    23charge 0 multiplicity 1
 O         0.258001        -0.071694         1.074409
 C        -0.868838         0.447136         0.315321
 C        -2.315900         0.528021         0.806623
 C        -1.436248         1.877500         0.533167
 C        -2.050588         3.011911        -0.263927
 C        -2.470840         2.925146        -1.520259
 C        -2.188809         1.700117        -2.446273
 O        -1.949035         0.372278        -1.835682
 C        -0.751240         0.026991        -1.124068
 H         0.418176        -1.014119         0.780883
 H        -3.152792         0.400597         0.128498
 H        -2.612259         0.383715         1.832154
 H        -1.231902         2.190539         1.555048
 H        -2.590330         3.646397         0.465063
 H        -3.336904         3.496876        -1.881384
 H        -3.169882         1.494711        -2.889110
 H        -1.518433         1.838913        -3.276698
 H        -0.633500        -1.044278        -1.304815
 H         0.078113         0.523059        -1.607982
