19
Iteration:  2193charge 0 multiplicity 1
 O         0.209896         0.014506         1.003460
 C        -0.950495         0.498057         0.301287
 C        -2.323571         0.595717         0.872048
 C        -1.565281         1.878005         0.656825
 C        -1.876102         2.874401        -0.336598
 C        -2.350073         2.800069        -1.596504
 C        -2.145243         1.570765        -2.437787
 O        -2.104483         0.333668        -1.800751
 C        -0.829582         0.059435        -1.119266
 H         1.011994         0.561880         0.741499
 H        -3.314936         0.387242         0.382288
 H        -2.265026         0.363437         1.993912
 H        -1.246575         2.219355         1.665435
 H        -1.950066         3.846274         0.210146
 H        -2.538040         3.680678        -2.153924
 H        -2.925856         1.449599        -3.178708
 H        -1.079683         1.776199        -2.898334
 H        -0.694585        -0.986405        -1.244800
 H        -0.017720         0.727040        -1.613853
