19
Iteration:  2294
 O         0.260129        -0.012113         0.915367
 C        -0.893809         0.564437         0.211429
 C        -2.181679         0.707494         1.091942
 C        -1.527401         1.996654         0.648415
 C        -2.291262         2.862615        -0.246779
 C        -2.416216         2.825639        -1.604927
 C        -1.791266         1.680511        -2.437917
 O        -2.108355         0.329329        -1.872511
 C        -1.043725        -0.214312        -1.103752
 H         1.024737        -0.038596         0.377162
 H        -3.041038         0.601474         0.490640
 H        -2.182528         0.361792         2.095744
 H        -0.927742         2.618797         1.289371
 H        -2.905254         3.521071         0.396398
 H        -2.607671         3.758261        -2.191713
 H        -2.004718         1.728600        -3.521749
 H        -0.721404         1.867589        -2.423705
 H        -1.122090        -1.320087        -0.989721
 H        -0.017368        -0.328989        -1.683910
