19
Iteration:  2344
 O         0.220398         0.183414         0.948198
 C        -1.040344         0.358198         0.306816
 C        -2.168654         0.679443         1.116836
 C        -1.390713         1.852314         0.620489
 C        -2.174156         2.773026        -0.251199
 C        -2.409190         2.776030        -1.584791
 C        -1.838431         1.694953        -2.441544
 O        -2.098097         0.372746        -2.005406
 C        -1.062585        -0.159092        -1.108567
 H         0.807100         0.942447         0.593441
 H        -3.309781         0.586086         0.674421
 H        -2.066360         0.411804         2.218392
 H        -0.771091         2.464179         1.386999
 H        -2.307627         3.832010         0.242467
 H        -2.919155         3.632713        -2.073755
 H        -2.178463         1.826496        -3.492373
 H        -0.698443         1.911623        -2.578984
 H        -1.218797        -1.256535        -1.130041
 H        -0.104904        -0.033343        -1.600889
