19
Iteration:  3634charge 0 multiplicity 1
 O         0.256624         0.100701         1.153019
 C        -0.964410         0.470560         0.345502
 C        -2.351344         0.438340         0.886813
 C        -1.524650         1.835105         0.750266
 C        -1.782352         2.895296        -0.291672
 C        -2.178396         2.834685        -1.632646
 C        -2.353880         1.549353        -2.539832
 O        -2.078206         0.277071        -1.940691
 C        -0.936284         0.230565        -1.142159
 H         0.835642         0.927827         0.880929
 H        -3.058301         0.107618         0.094152
 H        -2.530696        -0.193840         1.741943
 H        -1.089027         2.182015         1.806953
 H        -1.819427         3.926518         0.099710
 H        -2.073424         3.876513        -2.082607
 H        -3.417567         1.435864        -2.781976
 H        -1.724962         1.704661        -3.450332
 H        -0.599778        -0.842630        -1.388554
 H        -0.094447         0.699585        -1.601400
