19
Iteration:  3951
 O         0.129180        -0.043143         1.080005
 C        -0.927040         0.494700         0.317238
 C        -2.211278         0.706013         1.029031
 C        -1.307873         1.910184         0.642624
 C        -2.111911         2.855701        -0.261991
 C        -2.554102         2.761665        -1.573634
 C        -1.946018         1.726115        -2.486728
 O        -2.056549         0.324832        -2.011072
 C        -0.935218        -0.056354        -1.178545
 H         0.946444         0.301720         0.733920
 H        -3.132717         0.805080         0.457392
 H        -2.273709         0.368850         2.076822
 H        -0.807450         2.236170         1.515369
 H        -2.512585         3.568746         0.284933
 H        -3.113375         3.561183        -2.016932
 H        -2.303026         1.690331        -3.496101
 H        -0.895272         1.824329        -2.563599
 H        -0.935189        -1.145109        -1.198372
 H        -0.032191         0.420612        -1.529753
