19
Iteration:  4298charge 0 multiplicity 1
 O         0.175576        -0.003519         1.000917
 C        -0.989501         0.560596         0.224180
 C        -2.187273         0.673639         1.187567
 C        -1.405072         1.877146         0.557811
 C        -2.225992         2.866967        -0.211470
 C        -2.438726         2.730280        -1.585124
 C        -1.806726         1.737757        -2.469962
 O        -2.034384         0.358097        -2.005157
 C        -1.046043        -0.122635        -1.124078
 H         0.988898         0.374247         0.528486
 H        -3.261820         0.497983         0.934223
 H        -1.953748         0.505499         2.251459
 H        -0.793413         2.414207         1.334335
 H        -2.617412         3.658100         0.337169
 H        -3.092523         3.560859        -2.075441
 H        -2.191336         1.680046        -3.502463
 H        -0.774990         1.872781        -2.728855
 H        -1.072779        -1.358018        -1.118118
 H        -0.116433         0.154302        -1.619140
