19
Iteration:  1819charge 0 multiplicity 1
 O         0.150189        -0.032409         1.006898
 C        -0.933317         0.569210         0.202069
 C        -2.232173         0.632845         1.002135
 C        -1.526504         1.935595         0.654799
 C        -2.171748         2.852968        -0.259923
 C        -2.164382         2.777576        -1.555992
 C        -2.063217         1.572097        -2.394148
 O        -2.080794         0.324365        -1.897512
 C        -0.871472         0.035441        -1.182180
 H         0.937681         0.557254         0.702565
 H        -3.182851         0.279127         0.610346
 H        -2.115632         0.226221         1.984801
 H        -0.863737         2.403868         1.418776
 H        -2.206042         3.817766         0.248803
 H        -2.383957         3.775214        -2.118249
 H        -3.125876         1.590549        -2.928312
 H        -1.346018         1.625024        -3.198209
 H        -1.066470        -1.005085        -1.035402
 H        -0.019774         0.464655        -1.810533
