19
Iteration:  1583charge 0 multiplicity 1
 O         0.228790         0.251021         1.000901
 C        -0.926158         0.479951         0.237529
 C        -2.303223         0.587329         1.157909
 C        -1.548826         1.802868         0.652507
 C        -2.028783         2.882688        -0.201447
 C        -2.167155         2.827822        -1.579538
 C        -2.015718         1.631607        -2.450019
 O        -2.223771         0.280215        -1.993707
 C        -0.989050        -0.131952        -1.205191
 H         0.947519         0.743701         0.676638
 H        -3.097971         0.178063         0.557739
 H        -2.038364         0.126981         2.086717
 H        -0.904824         2.242281         1.441911
 H        -2.004426         3.884983         0.285725
 H        -2.228613         3.820162        -2.156099
 H        -2.636568         1.627237        -3.453924
 H        -0.926439         1.748502        -2.786877
 H        -1.227888        -1.119044        -1.184428
 H        -0.041364         0.203797        -1.698387
