19
Iteration:  2310
 O         0.207727         0.027615         0.968003
 C        -0.858206         0.489469         0.222933
 C        -2.073110         0.631186         0.983301
 C        -1.492523         2.004104         0.580323
 C        -2.342922         2.948311        -0.255823
 C        -2.360045         2.796585        -1.578232
 C        -1.750912         1.676762        -2.328545
 O        -2.129514         0.352442        -1.930656
 C        -1.100084        -0.176046        -1.092604
 H         0.954379         0.280603         0.393207
 H        -3.031648         0.247695         0.483243
 H        -1.958334         0.379581         2.066634
 H        -0.977590         2.378491         1.498648
 H        -2.749085         3.903444         0.082993
 H        -3.150234         3.328517        -2.071752
 H        -2.193001         1.677207        -3.337275
 H        -0.613633         1.649111        -2.418956
 H        -1.420504        -1.210452        -0.792014
 H        -0.194351        -0.234176        -1.656344
