19
Iteration:  4778
 O         0.079446         0.001393         1.094144
 C        -0.990773         0.465288         0.307414
 C        -2.203858         0.659815         1.016681
 C        -1.457738         1.894681         0.739589
 C        -2.002138         2.911695        -0.203530
 C        -2.299805         2.768975        -1.523531
 C        -2.210983         1.579324        -2.514791
 O        -1.955438         0.276747        -2.104225
 C        -0.854486         0.109625        -1.209376
 H         0.971823         0.344681         0.718780
 H        -3.189036         0.468340         0.490063
 H        -2.159604         0.174449         2.028006
 H        -0.873105         2.212278         1.653073
 H        -2.115025         3.952514         0.153762
 H        -2.803964         3.579224        -2.032810
 H        -3.151098         1.563374        -3.020593
 H        -1.436856         1.800422        -3.284041
 H        -0.756301        -0.935494        -1.082071
 H        -0.047564         0.631196        -1.589369
