19
Iteration:  3744charge 0 multiplicity 1
 O         0.031304        -0.091268         1.116260
 C        -0.953450         0.530623         0.244723
 C        -2.239695         0.615430         0.979207
 C        -1.452954         1.920568         0.632537
 C        -1.974140         2.941182        -0.318109
 C        -2.367095         2.808048        -1.549092
 C        -2.293644         1.564932        -2.449784
 O        -1.873536         0.286652        -1.947860
 C        -0.757520         0.120168        -1.173388
 H         0.919409         0.317804         0.962679
 H        -3.167224         0.508991         0.437318
 H        -2.151452         0.299576         2.024160
 H        -0.909426         2.293507         1.499055
 H        -2.197748         3.853398         0.132507
 H        -2.968082         3.584964        -1.991648
 H        -3.247140         1.343928        -2.856257
 H        -1.591964         1.935840        -3.280515
 H        -0.702214        -1.022525        -1.152385
 H         0.142255         0.659902        -1.637543
