19
Iteration:   272
 O         0.287760        -0.090802         1.061359
 C        -0.873329         0.432854         0.240852
 C        -2.153627         0.652402         1.038375
 C        -1.407018         1.888327         0.551397
 C        -2.245919         2.931233        -0.269082
 C        -2.628920         2.783542        -1.526835
 C        -1.834439         1.744046        -2.399119
 O        -2.088988         0.405278        -1.997108
 C        -0.998445        -0.103625        -1.218570
 H         0.583759         0.623237         1.695670
 H        -2.916444         0.406749         0.310489
 H        -2.173731         0.307755         2.078757
 H        -0.906852         2.437792         1.451008
 H        -2.417000         3.796104         0.399169
 H        -3.309629         3.570792        -2.049303
 H        -2.150191         1.842456        -3.461796
 H        -0.718714         1.938298        -2.331604
 H        -1.137040        -1.218083        -1.148662
 H        -0.148872         0.231533        -1.759967
