19
Iteration:  2144
 O         0.054524        -0.012829         1.139153
 C        -0.915149         0.558051         0.291925
 C        -2.218786         0.567169         1.009498
 C        -1.545845         1.855578         0.641963
 C        -1.969361         2.850078        -0.328241
 C        -2.076726         2.746953        -1.652889
 C        -2.402834         1.616277        -2.493070
 O        -2.025478         0.317559        -1.874609
 C        -0.728661         0.170673        -1.227818
 H         0.886938         0.450514         1.165034
 H        -3.055512         0.203520         0.436911
 H        -2.246090         0.220913         1.983175
 H        -1.039411         2.218181         1.543226
 H        -1.917921         3.864384         0.090010
 H        -2.331650         3.765749        -2.161967
 H        -3.499192         1.529201        -2.364122
 H        -2.182942         1.666334        -3.525708
 H        -0.642139        -0.962913        -1.285127
 H         0.039167         0.706457        -1.783941
