19
Iteration:  3873charge 0 multiplicity 1
 O         0.246422         0.109059         0.886851
 C        -1.061864         0.517233         0.335734
 C        -2.179540         0.603066         1.280991
 C        -1.505775         1.927645         0.653990
 C        -2.205011         2.856685        -0.211109
 C        -2.362333         2.749050        -1.623463
 C        -1.680827         1.738256        -2.484487
 O        -2.100042         0.352251        -2.063330
 C        -1.124286        -0.194615        -1.157617
 H         0.856883         0.512505         0.271092
 H        -3.235021         0.466149         1.052149
 H        -1.892812         0.478930         2.320559
 H        -0.754440         2.414419         1.357042
 H        -2.830656         3.551979         0.232761
 H        -3.102638         3.411908        -2.009687
 H        -1.922369         1.817941        -3.584549
 H        -0.485639         1.833062        -2.380483
 H        -1.238023        -1.276588        -1.117074
 H        -0.121258        -0.037951        -1.629484
