19
Iteration:  2625charge 0 multiplicity 1
 O         0.181747         0.049174         0.932490
 C        -0.989538         0.647072         0.291645
 C        -2.163946         0.560809         1.113978
 C        -1.534598         1.930492         0.728098
 C        -2.129467         2.860337        -0.219565
 C        -2.232657         2.740376        -1.568920
 C        -1.955144         1.620184        -2.588937
 O        -2.075256         0.295870        -2.015290
 C        -1.011038        -0.022744        -1.083317
 H         0.929590         0.563883         0.561238
 H        -3.174376         0.173795         0.774715
 H        -1.951081         0.369690         2.236267
 H        -0.728372         2.402714         1.484350
 H        -2.677346         3.668775         0.286249
 H        -2.579831         3.616910        -2.144676
 H        -2.804431         1.855521        -3.280122
 H        -1.051137         1.771639        -3.158377
 H        -1.249283        -1.082901        -0.799911
 H        -0.036827         0.019062        -1.491874
