19
Iteration:  1894
 O         0.169592        -0.022605         0.971202
 C        -0.936900         0.534834         0.202761
 C        -2.124122         0.679364         1.128070
 C        -1.470910         1.952140         0.631272
 C        -2.297025         2.870590        -0.262547
 C        -2.294269         2.894555        -1.612483
 C        -1.861827         1.735080        -2.401888
 O        -2.069921         0.286849        -1.963852
 C        -0.999098        -0.169486        -1.127756
 H         0.912954         0.063970         0.417073
 H        -3.221993         0.591666         1.022687
 H        -1.827602         0.367165         2.120378
 H        -0.888914         2.562047         1.361491
 H        -2.880566         3.618585         0.337228
 H        -3.322771         3.271629        -1.949149
 H        -2.395970         1.873878        -3.432749
 H        -0.757611         1.761867        -2.783868
 H        -1.189503        -1.200556        -0.929033
 H        -0.027001        -0.181732        -1.750219
