19
Iteration:  3269charge 0 multiplicity 1
 O         0.028814         0.020000         1.044483
 C        -0.991524         0.527672         0.226229
 C        -2.316865         0.593101         0.871516
 C        -1.471132         1.874872         0.703579
 C        -1.950192         2.965212        -0.191189
 C        -2.064030         2.773531        -1.555384
 C        -2.417745         1.502336        -2.376523
 O        -1.958754         0.227469        -1.925396
 C        -0.725961         0.156509        -1.228393
 H         0.870843         0.591991         0.876747
 H        -3.203739         0.357224         0.227548
 H        -2.284317         0.071742         1.860315
 H        -1.048018         2.149013         1.619809
 H        -2.032903         4.035784         0.117181
 H        -2.158598         3.840263        -2.007424
 H        -3.520396         1.435105        -2.465651
 H        -2.201015         1.734728        -3.446442
 H        -0.244539        -0.811444        -1.326638
 H         0.137207         0.827799        -1.533173
