19
Iteration:  1235
 O         0.038015        -0.024736         1.025592
 C        -0.894139         0.597343         0.192039
 C        -2.191584         0.675560         1.021444
 C        -1.432344         1.949429         0.754204
 C        -2.013473         2.908310        -0.241007
 C        -2.381532         2.779070        -1.552158
 C        -2.134516         1.635361        -2.459965
 O        -2.034921         0.216801        -1.965803
 C        -0.829159        -0.031335        -1.195103
 H         0.848851         0.406622         0.792704
 H        -3.225021         0.698365         0.594937
 H        -1.986948         0.234212         1.998618
 H        -0.881535         2.512401         1.459382
 H        -2.203151         3.871238         0.170681
 H        -2.955101         3.572098        -2.143148
 H        -2.942812         1.552755        -3.143842
 H        -1.244933         1.880068        -3.074947
 H        -0.859607        -1.135773        -0.844280
 H         0.104420         0.083732        -1.776163
