19
Iteration:  3756charge 0 multiplicity 1
 O         0.094306        -0.075045         1.100758
 C        -0.860879         0.548031         0.304925
 C        -2.212530         0.670903         0.965024
 C        -1.465604         1.905135         0.644810
 C        -2.128062         2.920210        -0.200331
 C        -2.309142         2.744147        -1.588727
 C        -2.209259         1.594833        -2.474175
 O        -1.997383         0.308560        -2.028301
 C        -0.830330         0.082300        -1.149539
 H         0.917358         0.340361         1.053140
 H        -3.169199         0.363645         0.552350
 H        -2.178982         0.424412         2.023579
 H        -1.039049         2.377518         1.449708
 H        -2.127915         3.867729         0.243302
 H        -2.588686         3.556060        -2.183381
 H        -3.127614         1.600193        -3.021550
 H        -1.460411         1.708023        -3.375600
 H        -0.597718        -1.058495        -1.122262
 H         0.194053         0.412422        -1.578304
