19
Iteration:  3116
 O         0.126087         0.048035         0.926960
 C        -1.024900         0.516381         0.242911
 C        -2.130246         0.712503         1.170057
 C        -1.403968         1.919999         0.556451
 C        -2.242220         2.891428        -0.166741
 C        -2.378798         2.792093        -1.490245
 C        -1.793304         1.747762        -2.466649
 O        -2.062351         0.270256        -2.050909
 C        -0.983605        -0.220481        -1.165335
 H         0.921107         0.484789         0.464213
 H        -3.154438         0.750959         0.845312
 H        -1.932228         0.438752         2.232008
 H        -0.797955         2.385958         1.332484
 H        -2.727079         3.538006         0.586837
 H        -3.142796         3.510568        -2.003434
 H        -2.477093         1.785216        -3.435148
 H        -0.746473         1.921736        -2.560722
 H        -1.298460        -1.198710        -0.858632
 H         0.003805        -0.109496        -1.570878
