19
Iteration:  2655charge 0 multiplicity 1
 O         0.249961         0.141204         0.958377
 C        -1.046988         0.417766         0.311389
 C        -2.139380         0.666366         1.240265
 C        -1.549429         1.908715         0.628747
 C        -2.222768         2.870543        -0.257677
 C        -2.339064         2.776520        -1.605974
 C        -1.879700         1.726367        -2.475435
 O        -2.058135         0.375663        -2.012227
 C        -1.006543        -0.201581        -1.139840
 H         0.794923        -0.125899         0.135641
 H        -3.140048         0.349371         0.831152
 H        -2.021556         0.552245         2.387625
 H        -0.566572         2.263845         1.147401
 H        -2.744530         3.680538         0.328472
 H        -2.691008         3.689354        -2.196523
 H        -2.497769         1.740164        -3.382905
 H        -0.707419         1.788801        -2.835448
 H        -1.209150        -1.325318        -1.176636
 H         0.101237         0.066127        -1.569966
