19
Iteration:   663
 O         0.131533        -0.028515         1.109401
 C        -0.896471         0.465094         0.227700
 C        -2.149070         0.671443         1.034893
 C        -1.268027         1.971523         0.575003
 C        -2.224188         2.817267        -0.219938
 C        -2.509703         2.729133        -1.568289
 C        -1.984786         1.759963        -2.512627
 O        -1.992303         0.426834        -1.973962
 C        -0.965402        -0.110135        -1.122559
 H         1.038658        -0.114680         0.612873
 H        -3.154167         0.773775         0.597933
 H        -2.175919         0.663195         2.118841
 H        -0.684721         2.451462         1.334333
 H        -2.664427         3.607075         0.280969
 H        -3.347747         3.359269        -1.892139
 H        -2.580265         1.539921        -3.489120
 H        -0.961854         2.054522        -2.994232
 H        -1.530040        -1.093526        -0.848083
 H        -0.005611        -0.343405        -1.633840
