19
Iteration:  2346charge 0 multiplicity 1
 O         0.222218         0.186641         0.938465
 C        -1.046295         0.363001         0.319304
 C        -2.171391         0.677532         1.129539
 C        -1.395938         1.849590         0.620349
 C        -2.180162         2.770691        -0.244966
 C        -2.393516         2.781848        -1.579678
 C        -1.840694         1.671479        -2.452463
 O        -2.097975         0.387814        -2.022239
 C        -1.046222        -0.176322        -1.101879
 H         0.808792         0.889762         0.643843
 H        -3.270362         0.636250         0.696535
 H        -2.112843         0.438643         2.229766
 H        -0.795380         2.482140         1.331829
 H        -2.275331         3.811631         0.324726
 H        -2.927516         3.607828        -2.135779
 H        -2.260357         1.859924        -3.449051
 H        -0.737941         1.908933        -2.633443
 H        -1.239873        -1.256651        -1.141042
 H        -0.104960         0.090139        -1.589319
