19
Iteration:   740charge 0 multiplicity 1
 O         0.254802         0.238207         0.765913
 C        -0.991197         0.592720         0.257413
 C        -2.237635         0.501086         1.138638
 C        -1.474363         1.884143         0.671219
 C        -2.141704         2.831885        -0.222353
 C        -2.147365         2.769486        -1.548753
 C        -1.877601         1.657449        -2.490778
 O        -2.064217         0.353340        -1.975426
 C        -1.162940        -0.187326        -1.025140
 H         0.735402         0.932414         1.174130
 H        -3.191755         0.320748         0.645253
 H        -2.090250         0.125564         2.180130
 H        -1.133982         2.387390         1.538009
 H        -2.364629         3.713800         0.238387
 H        -2.712289         3.527516        -2.044911
 H        -2.842813         1.615071        -3.150066
 H        -1.023621         1.797379        -3.233785
 H        -1.690878        -1.165818        -0.686342
 H        -0.147486        -0.386902        -1.459763
