19
Iteration:  3939charge 0 multiplicity 1
 O         0.142081        -0.107426         1.148086
 C        -0.925082         0.534599         0.255754
 C        -2.184501         0.713569         1.043356
 C        -1.320037         1.981104         0.523138
 C        -2.186129         2.853902        -0.203305
 C        -2.500192         2.643161        -1.493860
 C        -1.875165         1.706276        -2.495594
 O        -2.045480         0.378685        -2.088845
 C        -1.011290        -0.023610        -1.133225
 H         1.085044         0.094857         0.741076
 H        -3.134846         0.534469         0.548964
 H        -2.181104         0.674061         2.129356
 H        -0.797486         2.545087         1.284505
 H        -2.603266         3.607120         0.285741
 H        -3.243528         3.284347        -1.850931
 H        -2.456270         1.899815        -3.376954
 H        -0.867168         1.973559        -2.690739
 H        -1.061351        -1.070342        -1.061678
 H        -0.072881         0.123732        -1.690346
