19
Iteration:   968charge 0 multiplicity 1
 O         0.325712         0.169208         1.033097
 C        -0.933320         0.386254         0.328293
 C        -2.351814         0.501863         0.940211
 C        -1.641555         1.741844         0.604823
 C        -1.835683         2.847101        -0.265231
 C        -2.015895         2.817679        -1.592011
 C        -2.297918         1.570306        -2.468574
 O        -2.202790         0.308872        -1.860854
 C        -0.882233         0.183722        -1.161613
 H         0.784306         0.995865         1.081768
 H        -3.162285         0.288003         0.242183
 H        -2.609313         0.417003         2.032616
 H        -1.297546         2.077817         1.578892
 H        -2.038541         3.781893         0.164711
 H        -2.290605         3.713037        -2.197593
 H        -3.308168         1.727440        -2.806086
 H        -1.672324         1.586011        -3.408004
 H        -0.541470        -0.836380        -1.261704
 H        -0.138728         0.925618        -1.586405
