19
Iteration:  1493
 O         0.052966         0.067737         0.951859
 C        -0.950571         0.510806         0.162332
 C        -2.127361         0.696320         1.152116
 C        -1.347591         1.924202         0.587893
 C        -2.240520         2.857296        -0.231846
 C        -2.459505         2.740851        -1.512062
 C        -1.784263         1.691672        -2.418670
 O        -2.057098         0.355426        -1.982689
 C        -1.031889        -0.172077        -1.143785
 H         0.865634         0.330698         0.529964
 H        -3.207198         0.547022         0.899087
 H        -1.633873         0.409355         2.139041
 H        -0.606414         2.241457         1.283987
 H        -2.597161         3.795618         0.178142
 H        -2.980585         3.598921        -2.014411
 H        -2.231049         1.959542        -3.450538
 H        -0.665589         1.724102        -2.529332
 H        -1.355271        -1.132636        -0.817137
 H        -0.045604        -0.312881        -1.658285
