19
Iteration:  3579charge 0 multiplicity 1
 O         0.201567        -0.024806         0.947653
 C        -0.960999         0.472921         0.325205
 C        -2.216441         0.492312         1.077108
 C        -1.475187         1.903340         0.596239
 C        -2.189002         2.868148        -0.331497
 C        -2.246846         2.865989        -1.619094
 C        -2.000645         1.714533        -2.485454
 O        -2.096078         0.343823        -1.843048
 C        -0.928957         0.024305        -1.074691
 H         0.909175         0.482664         0.471107
 H        -3.013240         0.301435         0.315050
 H        -2.384594         0.259268         2.122111
 H        -0.839822         2.433796         1.481967
 H        -2.383537         3.861190         0.192273
 H        -2.816260         3.739809        -2.140156
 H        -2.744424         1.607270        -3.341175
 H        -1.001358         1.774727        -2.828213
 H        -1.013437        -1.133607        -1.077449
 H         0.000452         0.385830        -1.495947
