19
Iteration:  1296charge 0 multiplicity 1
 O         0.027403        -0.113177         1.119322
 C        -0.908972         0.439157         0.321519
 C        -2.253027         0.577534         0.934552
 C        -1.474884         1.894357         0.692962
 C        -1.773832         2.987520        -0.336300
 C        -2.342536         2.763363        -1.596511
 C        -2.388311         1.455557        -2.545930
 O        -2.019196         0.307624        -1.841453
 C        -0.715321         0.329302        -1.206423
 H         0.910073         0.348733         1.055233
 H        -3.175911         0.386187         0.405797
 H        -2.305041         0.252853         1.955150
 H        -1.105807         2.291084         1.677888
 H        -1.655732         4.049757         0.018301
 H        -2.522563         3.623560        -2.165743
 H        -3.459256         1.182788        -2.850679
 H        -1.870650         1.863621        -3.455256
 H        -0.407147        -0.662223        -1.389059
 H        -0.071633         1.099307        -1.633762
