19
Iteration:  4024
 O         0.231324         0.197681         1.074349
 C        -0.954722         0.491117         0.356982
 C        -2.327369         0.367187         0.941380
 C        -1.633762         1.767773         0.726131
 C        -1.843712         2.811660        -0.306904
 C        -2.048171         2.778113        -1.606720
 C        -2.247088         1.609490        -2.565549
 O        -2.162087         0.374772        -1.861874
 C        -0.918064         0.222979        -1.171272
 H         0.851089         0.721269         0.660446
 H        -3.074999        -0.128422         0.349137
 H        -2.262009         0.173678         2.000052
 H        -1.420468         2.081543         1.749034
 H        -1.852355         3.874420         0.091440
 H        -1.772071         3.621845        -2.119391
 H        -3.260826         1.487297        -3.013031
 H        -1.536978         1.430341        -3.494877
 H        -0.784429        -0.826669        -1.184926
 H        -0.137062         0.748348        -1.694931
