19
Iteration:  1707
 O         0.142621        -0.091256         1.013554
 C        -0.907813         0.489291         0.286930
 C        -2.366903         0.656248         0.876808
 C        -1.626705         1.967652         0.788910
 C        -1.859373         3.074236        -0.226000
 C        -2.198775         2.819936        -1.588515
 C        -2.428946         1.487976        -2.323491
 O        -1.889604         0.187430        -1.981520
 C        -0.771352         0.097607        -1.211438
 H         0.877490         0.487718         0.885365
 H        -3.235446         0.638971         0.122121
 H        -2.399788         0.130175         1.873345
 H        -1.187766         2.358759         1.683507
 H        -1.710918         4.120718         0.009772
 H        -2.286958         3.661975        -2.212415
 H        -3.617124         1.286085        -2.485488
 H        -2.045712         1.576171        -3.385865
 H        -0.329422        -0.906620        -1.312261
 H        -0.003599         0.900011        -1.701529
