19
Iteration:  4325charge 0 multiplicity 1
 O         0.119381        -0.129257         1.101908
 C        -0.886637         0.570457         0.250700
 C        -2.151815         0.746462         0.989583
 C        -1.322933         2.042285         0.657380
 C        -2.228227         2.889735        -0.263026
 C        -2.552359         2.711678        -1.534779
 C        -1.930139         1.752402        -2.452270
 O        -1.993734         0.317069        -1.994670
 C        -0.972406        -0.146100        -1.179891
 H         0.922243        -0.047395         0.483019
 H        -3.056876         0.668235         0.438564
 H        -2.219074         0.280076         1.960996
 H        -0.874643         2.598582         1.448893
 H        -2.472364         3.866974         0.345115
 H        -3.351246         3.266284        -1.844939
 H        -2.260818         1.629037        -3.469754
 H        -0.872450         1.949763        -2.717386
 H        -1.142423        -1.145169        -1.041038
 H         0.035677         0.043120        -1.705954
