19
Iteration:   630
 O         0.185739         0.093827         0.981097
 C        -1.006513         0.497664         0.284497
 C        -2.252511         0.595488         1.086296
 C        -1.472288         1.945053         0.681641
 C        -2.018374         2.970151        -0.249092
 C        -2.446573         2.784960        -1.519855
 C        -2.018794         1.653033        -2.414580
 O        -2.042949         0.239593        -2.047335
 C        -0.873862        -0.049835        -1.195638
 H         0.677225        -0.654334         0.559999
 H        -3.253021         0.547950         0.627453
 H        -2.235349         0.391799         2.145933
 H        -0.847447         2.280771         1.503185
 H        -2.115444         3.959812         0.100445
 H        -2.996708         3.599512        -2.052139
 H        -2.646327         1.663272        -3.373409
 H        -0.950430         1.923402        -2.578334
 H        -0.684584        -1.125331        -0.979302
 H         0.017027         0.241946        -1.752278
