19
Iteration:  3533charge 0 multiplicity 1
 O         0.079575         0.066033         0.980377
 C        -0.973115         0.496754         0.231995
 C        -2.071107         0.690065         1.181232
 C        -1.379789         1.921951         0.601992
 C        -2.226517         2.824405        -0.163124
 C        -2.443162         2.805183        -1.551777
 C        -1.775869         1.690231        -2.456809
 O        -2.041960         0.341652        -2.128580
 C        -1.109073        -0.154506        -1.114946
 H         0.867008         0.392643         0.579939
 H        -3.011861         0.435834         0.736835
 H        -1.849958         0.261689         2.175812
 H        -0.611222         2.394237         1.291145
 H        -2.631238         3.588673         0.575447
 H        -3.145622         3.493392        -2.003678
 H        -2.171045         1.821938        -3.418371
 H        -0.708821         1.881111        -2.455881
 H        -1.306757        -1.249310        -1.126309
 H        -0.110175         0.088630        -1.511228
