19
Iteration:  2204charge 0 multiplicity 1
 O         0.180660        -0.004953         0.938484
 C        -0.990486         0.539036         0.304477
 C        -2.302406         0.533051         0.994274
 C        -1.485609         1.900365         0.650844
 C        -2.001513         2.930792        -0.299731
 C        -2.263200         2.853266        -1.609354
 C        -2.130158         1.568594        -2.464823
 O        -2.008537         0.289020        -1.816739
 C        -0.905456         0.045960        -1.115323
 H         0.798076         0.701027         0.814644
 H        -3.149417         0.461244         0.242850
 H        -2.471234         0.161544         2.061292
 H        -0.964043         2.394349         1.513083
 H        -2.230550         3.948210         0.109175
 H        -2.798194         3.709610        -1.933891
 H        -2.905886         1.532489        -3.210984
 H        -1.205648         1.696364        -3.153431
 H        -0.764159        -1.010206        -0.990515
 H         0.070206         0.320820        -1.697595
