19
Iteration:  3721charge 0 multiplicity 1
 O         0.018175        -0.057214         1.161810
 C        -0.954333         0.478012         0.289703
 C        -2.343521         0.643740         0.847586
 C        -1.365242         1.887588         0.668659
 C        -1.840730         2.907883        -0.327148
 C        -2.440523         2.736439        -1.476458
 C        -2.407005         1.517146        -2.475261
 O        -1.918805         0.285744        -1.943911
 C        -0.658994         0.249443        -1.173522
 H         0.943261         0.076049         0.993575
 H        -3.153910         0.695802         0.133319
 H        -2.449213         0.326210         1.885959
 H        -0.836572         2.293649         1.616864
 H        -1.677147         3.895667        -0.005437
 H        -2.862984         3.538931        -2.117844
 H        -3.368772         1.275668        -2.862854
 H        -1.668298         1.867767        -3.299075
 H        -0.308076        -0.821036        -1.393528
 H         0.099697         1.062191        -1.449949
