19
Iteration:   528charge 0 multiplicity 1
 O         0.298198         0.104712         1.010394
 C        -0.902824         0.448281         0.287563
 C        -2.338974         0.524549         0.831223
 C        -1.586255         1.826588         0.652310
 C        -1.972162         2.835188        -0.279547
 C        -2.113499         2.740241        -1.629965
 C        -2.312949         1.586336        -2.439844
 O        -2.114667         0.363638        -1.736261
 C        -0.792674         0.165148        -1.217744
 H         0.063540         0.162994         1.937981
 H        -3.135006         0.417197         0.082886
 H        -2.650104         0.376322         1.872943
 H        -1.073073         2.136615         1.576125
 H        -1.850483         3.886860         0.131603
 H        -2.408017         3.605042        -2.220760
 H        -3.285137         1.553987        -2.939701
 H        -1.588097         1.629905        -3.212242
 H        -0.398968        -0.833588        -1.315943
 H        -0.185478         0.971206        -1.522275
