19
Iteration:  2414charge 0 multiplicity 1
 O         0.234419         0.046185         1.058097
 C        -0.956459         0.505435         0.340749
 C        -2.292496         0.555724         0.979968
 C        -1.521536         1.859662         0.670609
 C        -2.001840         2.843229        -0.322813
 C        -2.276637         2.826526        -1.617022
 C        -2.112020         1.582739        -2.496870
 O        -2.102381         0.329986        -1.872552
 C        -0.860775         0.100670        -1.134024
 H         0.933766         0.168054         0.320913
 H        -3.233711         0.386944         0.561146
 H        -2.158373         0.369534         2.031407
 H        -1.249100         2.285885         1.577698
 H        -2.309132         3.762689         0.172811
 H        -2.829677         3.676351        -2.021680
 H        -2.881621         1.544763        -3.291147
 H        -1.180462         1.613760        -3.191737
 H        -0.644604        -0.957223        -1.299814
 H        -0.111647         0.759481        -1.643824
