19
Iteration:  3405charge 0 multiplicity 1
 O         0.348277         0.127034         0.956461
 C        -1.040445         0.503641         0.313683
 C        -2.306718         0.502291         1.107164
 C        -1.518029         1.825770         0.702269
 C        -2.035602         2.948458        -0.257420
 C        -2.265842         2.737091        -1.597885
 C        -1.928336         1.619977        -2.489999
 O        -2.149154         0.392376        -1.968222
 C        -1.045081        -0.013440        -1.125745
 H         0.969426         0.801216         0.671956
 H        -3.113080         0.213615         0.432144
 H        -2.447953        -0.035290         2.019447
 H        -1.036259         2.075499         1.702071
 H        -2.173768         3.918998         0.168103
 H        -2.678101         3.642757        -2.041160
 H        -2.624643         1.745056        -3.441069
 H        -0.986131         1.744488        -3.059988
 H        -1.138204        -1.122222        -1.174038
 H        -0.091159         0.142200        -1.688026
