19
Iteration:   547charge 0 multiplicity 1
 O         0.222592         0.181286         0.992622
 C        -0.961116         0.456659         0.306418
 C        -2.289604         0.316623         0.921701
 C        -1.577851         1.743565         0.605847
 C        -1.772440         2.891832        -0.380203
 C        -2.271037         2.938775        -1.683134
 C        -2.274795         1.504201        -2.480877
 O        -2.084520         0.448235        -1.685609
 C        -0.826782         0.149241        -1.137174
 H         0.059775         0.061409         1.985564
 H        -3.130793        -0.055419         0.306459
 H        -2.320148        -0.002045         1.972879
 H        -1.378194         2.198021         1.517620
 H        -1.826560         3.802263         0.227795
 H        -2.406342         3.893657        -2.099112
 H        -3.177532         1.455028        -3.054297
 H        -1.496218         1.685139        -3.351099
 H        -0.607857        -0.948284        -1.280757
 H        -0.050075         0.753112        -1.743658
