19
Iteration:  1133charge 0 multiplicity 1
 O         0.285946         0.261312         0.838656
 C        -0.995486         0.445509         0.240246
 C        -2.178325         0.562865         1.232717
 C        -1.555780         1.847074         0.574886
 C        -2.225306         2.850868        -0.240299
 C        -2.275298         2.808668        -1.603282
 C        -1.706460         1.667090        -2.419694
 O        -2.172364         0.392395        -1.931653
 C        -1.155773        -0.211469        -1.085536
 H         0.865675         0.017979         0.050978
 H        -3.103773         0.287356         0.739463
 H        -2.032578         0.432262         2.295731
 H        -1.006636         2.437895         1.380597
 H        -2.446875         3.859660         0.261986
 H        -2.529149         3.745969        -2.058735
 H        -2.041480         1.708677        -3.444434
 H        -0.606859         1.727861        -2.446645
 H        -1.474615        -1.231819        -0.913757
 H        -0.153284        -0.165923        -1.545962
