19
Iteration:  3287
 O         0.015006        -0.117524         1.052124
 C        -0.966387         0.598718         0.193628
 C        -2.287341         0.603237         0.877323
 C        -1.520979         1.861096         0.688000
 C        -1.905770         2.952247        -0.231037
 C        -2.150229         2.765679        -1.578472
 C        -2.351099         1.481279        -2.275091
 O        -1.939276         0.188853        -1.934154
 C        -0.746415         0.310507        -1.259177
 H         0.896537         0.430504         1.112393
 H        -3.272688         0.564711         0.350658
 H        -2.513426         0.350836         1.882290
 H        -1.001034         2.484738         1.521635
 H        -1.863875         3.941632         0.259576
 H        -2.432295         3.683925        -2.236588
 H        -3.452268         1.430264        -2.344400
 H        -1.959519         1.630306        -3.306464
 H        -0.218432        -0.682463        -1.176439
 H        -0.068433         1.054392        -1.709635
