19
Iteration:  3001charge 0 multiplicity 1
 O         0.277383         0.102203         0.910605
 C        -0.994148         0.562226         0.326370
 C        -2.287239         0.504150         1.079945
 C        -1.528622         1.876845         0.737772
 C        -2.030238         2.893396        -0.235297
 C        -2.219062         2.735315        -1.605816
 C        -1.984648         1.606520        -2.567855
 O        -2.173175         0.359233        -1.924907
 C        -0.957016        -0.046744        -1.118888
 H         0.829743         0.961220         0.751634
 H        -3.086400         0.200371         0.354289
 H        -2.571118         0.272265         2.194635
 H        -0.983905         2.298055         1.582299
 H        -2.079324         3.960994         0.141795
 H        -2.773837         3.645794        -1.978840
 H        -2.753669         1.721219        -3.381662
 H        -0.933904         1.667172        -2.932771
 H        -1.007207        -1.145746        -1.003676
 H        -0.110910         0.370852        -1.670887
