19
Iteration:   650charge 0 multiplicity 1
 O         0.205916        -0.015461         1.139370
 C        -0.873617         0.518257         0.311820
 C        -2.153342         0.720503         1.023367
 C        -1.384957         1.915667         0.547751
 C        -2.115369         2.928982        -0.239390
 C        -2.554586         2.777019        -1.504388
 C        -2.014830         1.700048        -2.513577
 O        -1.977271         0.328593        -2.079577
 C        -1.038434        -0.117697        -1.116498
 H         0.762953        -0.497501         0.560297
 H        -2.997584         0.363942         0.407827
 H        -2.165393         0.442805         2.068974
 H        -0.832748         2.351113         1.423386
 H        -2.591923         3.708498         0.417814
 H        -3.212811         3.586783        -1.940926
 H        -2.660197         1.764582        -3.417643
 H        -0.925096         2.040150        -2.744120
 H        -1.223176        -1.231290        -1.054999
 H        -0.001116         0.070432        -1.563179
