19
Iteration:  2851charge 0 multiplicity 1
 O         0.131548         0.010319         1.140950
 C        -0.876023         0.525379         0.323393
 C        -2.337791         0.610956         0.950871
 C        -1.475828         1.809258         0.717030
 C        -1.859907         2.852717        -0.291689
 C        -2.184599         2.749426        -1.606218
 C        -2.399941         1.517648        -2.531753
 O        -2.056853         0.262112        -1.960548
 C        -0.763107         0.262793        -1.238562
 H         0.553135         0.679729         1.752072
 H        -3.213611         0.410624         0.267363
 H        -2.470254         0.388703         2.042008
 H        -0.994047         2.241430         1.644018
 H        -1.835704         3.831630         0.171529
 H        -2.472991         3.754053        -2.016857
 H        -3.461936         1.393205        -2.761400
 H        -2.028379         1.853006        -3.578960
 H        -0.409308        -0.787249        -1.348876
 H         0.094385         0.846072        -1.711379
