19
Iteration:  2743charge 0 multiplicity 1
 O         0.225422         0.097013         0.927036
 C        -1.082875         0.497874         0.276528
 C        -2.210823         0.596581         1.241250
 C        -1.451065         1.864258         0.613711
 C        -2.085778         2.865511        -0.243450
 C        -2.434278         2.788581        -1.544290
 C        -1.845762         1.647190        -2.580471
 O        -2.040840         0.317185        -1.999434
 C        -1.061036        -0.068678        -1.113482
 H         0.799588         0.940200         0.779801
 H        -3.253487         0.430962         0.727837
 H        -2.065105         0.209863         2.297552
 H        -0.652539         2.321993         1.353690
 H        -2.141056         3.926560         0.132309
 H        -2.990945         3.644731        -2.013896
 H        -2.225764         1.598119        -3.572492
 H        -0.839895         1.895657        -2.538377
 H        -1.190657        -1.182537        -1.094579
 H        -0.153088         0.206155        -1.492797
