19
Iteration:  2566charge 0 multiplicity 1
 O         0.140206         0.027688         1.122208
 C        -0.913879         0.465934         0.245516
 C        -2.266059         0.531792         0.869469
 C        -1.455399         1.890556         0.664667
 C        -1.983604         2.915413        -0.302141
 C        -2.290374         2.850589        -1.629573
 C        -2.207749         1.561097        -2.469934
 O        -2.053519         0.381126        -1.787051
 C        -0.817075         0.019007        -1.185410
 H         0.861564         0.756726         1.109134
 H        -3.080616         0.365997         0.210252
 H        -2.261238         0.346573         1.884718
 H        -1.020024         2.359666         1.532868
 H        -2.007866         3.885468         0.164010
 H        -2.908811         3.603362        -2.133428
 H        -3.243180         1.417207        -2.714429
 H        -1.639791         1.586189        -3.458424
 H        -0.834327        -1.079550        -1.258820
 H         0.145473         0.322301        -1.778045
