19
Iteration:  2001
 O         0.238411         0.091595         0.945368
 C        -0.985270         0.562322         0.264009
 C        -2.261637         0.548447         1.059023
 C        -1.556253         1.862921         0.654217
 C        -2.020320         2.892823        -0.242921
 C        -2.178815         2.741311        -1.541970
 C        -1.972044         1.591064        -2.550542
 O        -2.135753         0.296760        -1.902097
 C        -1.031798         0.012691        -1.116944
 H         0.876095         0.697858         0.635738
 H        -3.268629         0.319482         0.601078
 H        -2.216712         0.418472         2.163220
 H        -1.034325         2.378337         1.486418
 H        -2.193894         3.896173         0.215413
 H        -2.900209         3.524330        -2.015068
 H        -2.747610         1.706475        -3.204847
 H        -0.976962         1.711411        -2.954406
 H        -0.776218        -1.118711        -1.167625
 H        -0.145949         0.626647        -1.528347
