19
Iteration:  1839
 O         0.136700         0.057565         0.982551
 C        -0.960202         0.497219         0.243739
 C        -2.197762         0.588622         1.129645
 C        -1.415923         1.901291         0.681210
 C        -2.016403         2.968745        -0.220704
 C        -2.323511         2.824729        -1.538459
 C        -2.034173         1.656737        -2.564780
 O        -2.076557         0.245697        -2.001099
 C        -0.970890        -0.076807        -1.149045
 H         0.785414         0.783665         0.902614
 H        -3.114392         0.425391         0.522382
 H        -2.314377         0.242465         2.174639
 H        -0.920755         2.205750         1.608054
 H        -2.523342         3.748947         0.374822
 H        -2.938707         3.644715        -2.053540
 H        -2.714654         1.566187        -3.465139
 H        -0.985057         1.693512        -2.844451
 H        -0.866054        -1.122529        -1.039936
 H        -0.157573         0.548107        -1.642628
