19
Iteration:  4970charge 0 multiplicity 1
 O         0.108408        -0.021380         1.206165
 C        -0.837973         0.432859         0.233377
 C        -2.185140         0.634595         1.030368
 C        -1.416285         1.854101         0.561101
 C        -2.172150         2.821731        -0.273317
 C        -2.389726         2.915140        -1.566204
 C        -2.026549         1.758377        -2.510378
 O        -2.056567         0.349123        -1.947040
 C        -0.867419        -0.043653        -1.199232
 H         0.939855         0.125312         0.813952
 H        -3.118003         0.380567         0.593867
 H        -2.103300         0.303463         2.004526
 H        -0.951364         2.427402         1.345958
 H        -2.547416         3.687035         0.354662
 H        -3.152308         3.604948        -1.977283
 H        -2.984352         1.635734        -3.192220
 H        -1.106313         1.882645        -3.141704
 H        -0.875231        -1.218663        -1.195193
 H        -0.000778         0.368847        -1.832360
