19
Iteration:  3805charge 0 multiplicity 1
 O         0.253015         0.216114         0.906484
 C        -1.036629         0.449792         0.282791
 C        -2.223816         0.459926         1.125627
 C        -1.606377         1.834716         0.551546
 C        -2.082313         2.822818        -0.295902
 C        -2.244984         2.776677        -1.579322
 C        -1.882661         1.691944        -2.489149
 O        -2.118115         0.399444        -1.808290
 C        -1.072615        -0.079072        -1.129406
 H         0.984198         0.807139         0.447442
 H        -3.097626         0.050506         0.616922
 H        -2.351171         0.387727         2.213174
 H        -1.012162         2.340192         1.446072
 H        -2.239831         3.835831         0.255435
 H        -2.303658         3.791415        -2.130200
 H        -2.314447         1.582822        -3.574464
 H        -0.727722         1.692320        -2.716376
 H        -1.045921        -1.135917        -1.056288
 H        -0.080774         0.237939        -1.442620
