19
Iteration:  2452charge 0 multiplicity 1
 O         0.126686         0.024644         1.203097
 C        -0.851353         0.533653         0.227865
 C        -2.210576         0.488776         0.823744
 C        -1.507166         1.916687         0.625824
 C        -1.936056         2.912231        -0.306697
 C        -2.305070         2.815660        -1.578496
 C        -2.349778         1.590697        -2.457518
 O        -2.041866         0.306298        -1.861744
 C        -0.832222         0.037858        -1.212662
 H         0.784750         0.745466         1.372125
 H        -3.229987         0.437976         0.297079
 H        -2.128928         0.164650         1.892411
 H        -1.261652         2.330112         1.663355
 H        -1.728890         3.922360         0.129078
 H        -2.365407         3.795936        -2.092343
 H        -3.372605         1.384938        -2.829661
 H        -1.583068         1.843550        -3.205312
 H        -0.539655        -1.039518        -1.209490
 H         0.158373         0.485589        -1.717299
