19
Iteration:  1457
 O         0.165169         0.017586         1.014924
 C        -1.006931         0.479778         0.348613
 C        -2.209856         0.752685         1.093534
 C        -1.276653         1.923372         0.655904
 C        -2.078090         2.935444        -0.206750
 C        -2.510156         2.745583        -1.524907
 C        -1.958760         1.733792        -2.514255
 O        -2.043472         0.259699        -2.171334
 C        -0.989055        -0.109940        -1.096093
 H         0.900341         0.277112         0.454159
 H        -3.138276         0.523579         0.644190
 H        -2.249477         0.442700         2.097958
 H        -0.682120         2.268493         1.544817
 H        -2.476398         3.732089         0.490146
 H        -3.292658         3.229148        -1.969244
 H        -2.370196         1.652625        -3.444398
 H        -0.811851         2.084010        -2.656648
 H        -1.255118        -1.198896        -0.872173
 H        -0.032452        -0.056035        -1.642301
