19
Iteration:  3860charge 0 multiplicity 1
 O         0.236125         0.170653         0.900637
 C        -0.985503         0.520145         0.220065
 C        -2.162687         0.585274         1.235474
 C        -1.499366         1.877084         0.691287
 C        -2.277822         2.748644        -0.273566
 C        -2.305921         2.757463        -1.604108
 C        -1.690339         1.725425        -2.478066
 O        -2.128615         0.380100        -1.996043
 C        -1.163905        -0.136242        -1.116334
 H         1.009536         0.592960         0.412076
 H        -3.145943         0.304403         0.837514
 H        -1.933449         0.106574         2.178038
 H        -0.911138         2.478386         1.503099
 H        -2.564494         3.749342         0.218916
 H        -2.699481         3.651037        -2.154065
 H        -1.980721         1.890410        -3.589161
 H        -0.525789         1.709370        -2.421664
 H        -1.616058        -1.028171        -0.760502
 H        -0.147681        -0.277414        -1.577391
