19
Iteration:  3476charge 0 multiplicity 1
 O         0.254883         0.021527         0.859628
 C        -0.968296         0.601931         0.334264
 C        -2.198136         0.616836         1.208557
 C        -1.445323         1.905751         0.578538
 C        -2.238226         2.748900        -0.277448
 C        -2.397296         2.733044        -1.570207
 C        -1.695992         1.759499        -2.400928
 O        -2.092532         0.434869        -2.078665
 C        -1.157730        -0.101909        -1.040300
 H         0.966762         0.173725         0.199910
 H        -3.157842         0.210358         0.838957
 H        -1.962809         0.408120         2.236214
 H        -0.948859         2.522392         1.251282
 H        -2.681992         3.573047         0.333857
 H        -3.173941         3.241465        -2.062210
 H        -1.802518         1.898172        -3.400509
 H        -0.604199         1.854098        -2.308250
 H        -1.625030        -1.044555        -0.817604
 H        -0.211133        -0.381658        -1.541794
