19
Iteration:  3352
 O         0.056421        -0.063899         1.157830
 C        -0.957054         0.430441         0.239349
 C        -2.201650         0.510228         0.936527
 C        -1.507584         1.892105         0.607246
 C        -1.934484         2.995042        -0.253746
 C        -2.286794         2.853280        -1.594228
 C        -2.309999         1.548562        -2.517973
 O        -1.999269         0.308318        -1.843423
 C        -0.718980         0.183371        -1.210631
 H         0.883817         0.314192         0.940096
 H        -3.203811         0.565745         0.478250
 H        -2.237943         0.380037         2.008993
 H        -0.897320         1.992995         1.556194
 H        -2.067893         4.020062         0.134953
 H        -2.718846         3.820815        -2.021750
 H        -3.373549         1.245201        -2.807584
 H        -1.639871         1.640300        -3.397320
 H        -0.479791        -0.859850        -1.519866
 H         0.005548         0.925230        -1.651002
