19
Iteration:  4477
 O         0.173312         0.004580         1.149575
 C        -0.891081         0.490085         0.310510
 C        -2.276909         0.488111         0.932316
 C        -1.564138         1.872420         0.669634
 C        -1.909325         2.909813        -0.284799
 C        -2.158862         2.796519        -1.614260
 C        -2.325888         1.646937        -2.524288
 O        -2.079208         0.265561        -1.952982
 C        -0.825794         0.181721        -1.171988
 H         0.838112         0.760282         1.149548
 H        -3.191083         0.257565         0.359796
 H        -2.298635         0.139671         1.984887
 H        -1.267901         2.253182         1.620351
 H        -1.998349         3.939263         0.032629
 H        -2.268677         3.708044        -2.112722
 H        -3.384655         1.516006        -2.621119
 H        -1.689301         1.741505        -3.416305
 H        -0.697298        -0.998736        -1.122939
 H         0.064032         0.646441        -1.600745
