19
Iteration:   459
 O         0.190124        -0.095938         1.032432
 C        -0.950191         0.396879         0.359212
 C        -2.335304         0.754470         1.071974
 C        -1.344737         1.898275         0.623791
 C        -2.012273         2.864402        -0.230006
 C        -2.413150         2.785377        -1.544860
 C        -2.324113         1.622856        -2.563860
 O        -1.910554         0.264851        -2.087623
 C        -0.747620         0.131953        -1.147868
 H         0.221616         0.402922         1.912978
 H        -3.175488         0.947717         0.411522
 H        -2.552155         0.533709         2.139886
 H        -0.618035         2.234702         1.348694
 H        -2.277156         3.808476         0.175934
 H        -3.121172         3.591779        -1.695710
 H        -3.219062         1.366505        -3.108156
 H        -1.642929         1.912183        -3.306914
 H        -0.426940        -0.937626        -1.351505
 H         0.063573         0.892151        -1.250683
