19
Iteration:  4856charge 0 multiplicity 1
 O         0.227420         0.148072         1.150204
 C        -0.913687         0.433648         0.371482
 C        -2.240824         0.358091         0.900810
 C        -1.664593         1.754110         0.656203
 C        -1.894793         2.837523        -0.311319
 C        -2.096408         2.861293        -1.661916
 C        -2.297020         1.645921        -2.545396
 O        -2.149655         0.416174        -1.819109
 C        -0.912731         0.097302        -1.209771
 H         0.887269         0.813405         1.008152
 H        -3.173941         0.082657         0.268883
 H        -2.197563         0.135082         2.066859
 H        -1.171598         2.263662         1.572871
 H        -1.517624         3.728424         0.125114
 H        -2.232739         3.905819        -2.146923
 H        -3.302485         1.605104        -2.967578
 H        -1.464420         1.696037        -3.397976
 H        -0.551169        -0.927203        -1.263510
 H        -0.099140         0.731014        -1.732942
