19
Iteration:  2336charge 0 multiplicity 1
 O         0.221337         0.158862         0.979663
 C        -0.980623         0.417042         0.240303
 C        -2.193407         0.660043         1.115947
 C        -1.409835         1.883755         0.597512
 C        -2.129946         2.818935        -0.283144
 C        -2.453335         2.749756        -1.576076
 C        -1.807174         1.767428        -2.439509
 O        -2.093721         0.324447        -1.939794
 C        -1.113856        -0.140622        -1.157582
 H         0.765493         0.873020         0.539014
 H        -3.178039         0.368970         0.657510
 H        -1.994170         0.338115         2.150634
 H        -0.756421         2.201020         1.417572
 H        -2.572236         3.801924         0.130858
 H        -2.935813         3.694176        -1.922829
 H        -2.003215         1.663935        -3.488599
 H        -0.728583         1.824884        -2.265000
 H        -1.308536        -1.220537        -1.010387
 H        -0.091467        -0.233981        -1.596444
