19
Iteration:  2226charge 0 multiplicity 1
 O         0.180264         0.010216         1.007396
 C        -0.957526         0.559785         0.287028
 C        -2.162150         0.669379         1.092025
 C        -1.510505         1.937431         0.685013
 C        -2.138856         2.875978        -0.228621
 C        -2.215996         2.777151        -1.557875
 C        -2.056251         1.598200        -2.528242
 O        -2.058449         0.297367        -2.050438
 C        -0.982838        -0.091507        -1.134701
 H         0.889465         0.713902         1.160754
 H        -3.203683         0.480837         0.663118
 H        -1.913287         0.395004         2.151945
 H        -0.976650         2.362764         1.575712
 H        -2.641915         3.775033         0.234242
 H        -2.472849         3.716373        -2.016365
 H        -2.902803         1.777321        -3.140173
 H        -1.299759         1.879811        -3.293366
 H        -0.967002        -1.163171        -1.121305
 H         0.014314         0.136313        -1.682452
