19
Iteration:   450charge 0 multiplicity 1
 O         0.169355        -0.112066         1.103058
 C        -0.962119         0.399381         0.387958
 C        -2.219268         0.730924         0.998379
 C        -1.285171         1.905872         0.638810
 C        -2.033512         2.892848        -0.264300
 C        -2.422354         2.786245        -1.532694
 C        -2.273552         1.590604        -2.569528
 O        -1.932841         0.309345        -2.038655
 C        -0.836836         0.160072        -1.222466
 H         0.284729         0.458412         1.922963
 H        -3.074351         0.624425         0.300943
 H        -2.569370         0.475401         2.021268
 H        -0.805223         2.430078         1.422411
 H        -2.518132         3.630338         0.371082
 H        -3.246587         3.353185        -1.829068
 H        -3.198989         1.577712        -3.089884
 H        -1.563713         1.854210        -3.344553
 H        -0.552724        -0.889456        -1.240360
 H         0.053077         0.648136        -1.581563
