19
Iteration:  3991
 O         0.185189         0.059761         1.005613
 C        -0.922212         0.514427         0.272136
 C        -2.248381         0.482250         0.984662
 C        -1.555622         1.844780         0.709376
 C        -2.087546         2.923442        -0.252534
 C        -2.147587         2.870570        -1.619903
 C        -2.115845         1.598480        -2.500891
 O        -2.086749         0.304569        -1.889767
 C        -0.923730         0.034861        -1.133825
 H         0.950335         0.697612         0.827088
 H        -3.106401         0.149973         0.422961
 H        -2.248113         0.171685         2.019195
 H        -1.211199         2.348449         1.641217
 H        -2.349220         3.907489         0.274670
 H        -2.140688         3.749499        -2.180761
 H        -3.068050         1.617128        -3.081971
 H        -1.271067         1.852453        -3.271309
 H        -0.843456        -1.039509        -1.027391
 H        -0.091705         0.405089        -1.759442
