19
Iteration:  2090
 O         0.103888         0.003242         1.060234
 C        -0.944492         0.533449         0.288138
 C        -2.363164         0.674467         0.825464
 C        -1.423983         1.881178         0.771524
 C        -1.773975         2.894905        -0.286705
 C        -2.269369         2.617695        -1.532358
 C        -2.398191         1.496474        -2.398489
 O        -2.002597         0.250951        -1.925017
 C        -0.800338         0.273406        -1.217602
 H         0.721450         0.685432         1.202384
 H        -3.202723         0.727667         0.172382
 H        -2.533502         0.301690         1.813422
 H        -1.090119         2.075722         1.803185
 H        -1.905367         3.929813         0.073749
 H        -2.486273         3.564390        -2.182974
 H        -3.238807         1.304616        -2.940576
 H        -1.613486         1.749438        -3.308213
 H        -0.480376        -0.820231        -1.280710
 H         0.077734         0.865015        -1.688031
