19
Iteration:  2061
 O         0.015879        -0.054530         1.179704
 C        -0.826802         0.545206         0.277650
 C        -2.172098         0.521184         0.929196
 C        -1.446600         1.874079         0.623077
 C        -1.977393         2.970240        -0.312583
 C        -2.240801         2.875231        -1.641219
 C        -2.349699         1.562942        -2.430820
 O        -2.044949         0.258671        -1.853442
 C        -0.784850         0.150452        -1.258946
 H         0.926315         0.322075         1.237896
 H        -3.052088         0.388656         0.297476
 H        -2.204010         0.357800         1.972714
 H        -1.026416         2.209067         1.550179
 H        -2.221721         3.894301         0.185083
 H        -2.719190         3.642946        -2.173671
 H        -3.321840         1.311433        -3.010544
 H        -1.683043         1.676550        -3.210743
 H        -0.503536        -0.856374        -1.364693
 H         0.034822         0.709212        -1.710348
