19
Iteration:   179
 O         0.198102         0.154607         0.981564
 C        -0.976960         0.488048         0.280732
 C        -2.263800         0.384603         0.997862
 C        -1.489702         1.793307         0.635306
 C        -2.044770         2.889563        -0.233896
 C        -2.194457         2.827507        -1.622286
 C        -2.176651         1.630029        -2.470747
 O        -2.076686         0.388099        -1.855185
 C        -0.831160         0.146379        -1.170507
 H         0.323748        -0.782926         0.983737
 H        -3.132446         0.129950         0.373653
 H        -2.050607        -0.002988         2.017982
 H        -1.120854         2.123114         1.587956
 H        -2.243763         3.875917         0.263159
 H        -2.646387         3.753641        -2.039383
 H        -3.104970         1.672926        -3.090858
 H        -1.293570         1.804883        -3.178024
 H        -0.790862        -0.932276        -1.261855
 H         0.036304         0.689519        -1.452198
