19
Iteration:  1485charge 0 multiplicity 1
 O         0.078793         0.072130         1.023753
 C        -0.976748         0.529548         0.155483
 C        -2.091255         0.786858         1.120232
 C        -1.385880         1.951774         0.562566
 C        -2.214384         2.861120        -0.135411
 C        -2.431311         2.682753        -1.476602
 C        -1.828552         1.703943        -2.402001
 O        -2.048132         0.339070        -2.068518
 C        -1.037986        -0.239887        -1.198273
 H         0.895387         0.236178         0.615437
 H        -3.142504         0.538483         0.841616
 H        -1.810946         0.385416         2.112798
 H        -0.682138         2.364150         1.306285
 H        -2.481554         3.767522         0.410915
 H        -2.899896         3.501104        -2.175941
 H        -2.284314         1.712485        -3.482451
 H        -0.806821         1.931478        -2.526643
 H        -1.424068        -1.222767        -0.937015
 H        -0.081595        -0.185140        -1.740968
