19
Iteration:  2242
 O         0.176850         0.066762         1.057857
 C        -0.962749         0.522644         0.259083
 C        -2.180703         0.650319         1.281370
 C        -1.462637         1.888243         0.721301
 C        -2.136435         2.795924        -0.256346
 C        -2.277689         2.782690        -1.604467
 C        -2.008342         1.709984        -2.559341
 O        -2.070452         0.283278        -2.091674
 C        -1.010626        -0.039820        -1.246090
 H         0.891515         0.711536         0.932565
 H        -3.133011         0.439931         0.961722
 H        -1.997083         0.352710         2.279634
 H        -0.845958         2.479565         1.364672
 H        -2.182075         3.741791         0.214694
 H        -2.828663         3.598555        -2.166152
 H        -2.769184         1.590100        -3.476656
 H        -0.863266         1.761134        -2.822047
 H        -1.296566        -1.127034        -1.003744
 H        -0.025740         0.047789        -1.671207
