19
Iteration:  3198charge 0 multiplicity 1
 O         0.158508        -0.000820         1.023398
 C        -0.931364         0.494176         0.238504
 C        -2.264967         0.560760         0.989648
 C        -1.548994         1.839467         0.613727
 C        -2.120789         2.848064        -0.264932
 C        -2.127756         2.828121        -1.611836
 C        -2.113453         1.584877        -2.547018
 O        -2.127611         0.409822        -1.693734
 C        -0.853877         0.079579        -1.222574
 H         0.963884         0.644392         0.948989
 H        -3.148362         0.125514         0.610844
 H        -1.991272         0.337909         2.013646
 H        -0.987066         2.137739         1.553478
 H        -2.347760         3.722665         0.302435
 H        -2.408758         3.646703        -2.192566
 H        -2.935067         1.581016        -3.165104
 H        -1.315315         1.665374        -3.295868
 H        -0.476187        -0.948059        -1.417175
 H        -0.134882         0.639885        -1.748543
