19
Iteration:  4601charge 0 multiplicity 1
 O         0.311983         0.081945         0.969100
 C        -0.925902         0.455760         0.337239
 C        -2.261895         0.529574         1.082343
 C        -1.585960         1.816013         0.629189
 C        -2.158903         2.889363        -0.246804
 C        -2.290706         2.853183        -1.604131
 C        -1.910539         1.632896        -2.535490
 O        -2.090760         0.403364        -1.896505
 C        -1.053820        -0.033066        -1.142418
 H         0.975116         0.844565         0.734332
 H        -3.144547         0.272185         0.517631
 H        -2.391993         0.337690         2.125631
 H        -1.023696         2.207840         1.475634
 H        -2.376083         3.840431         0.449706
 H        -2.717577         3.689878        -2.225676
 H        -2.526943         1.562335        -3.431512
 H        -0.808736         1.694796        -2.984141
 H        -0.992116        -1.132384        -1.145172
 H        -0.096032         0.112742        -1.691387
