19
Iteration:  2536
 O         0.082075        -0.025433         1.168121
 C        -0.852325         0.554797         0.326839
 C        -2.174867         0.536868         0.946010
 C        -1.522579         1.916779         0.668087
 C        -1.947723         2.899937        -0.321850
 C        -2.238677         2.767802        -1.623621
 C        -2.306258         1.542010        -2.447049
 O        -2.095664         0.275412        -1.972466
 C        -0.817361         0.227426        -1.155349
 H         0.978349         0.038820         0.835033
 H        -2.898787         0.081926         0.176323
 H        -2.251841         0.317258         2.033191
 H        -1.146422         2.470003         1.640549
 H        -1.695172         3.916406         0.026202
 H        -2.483070         3.648257        -2.284975
 H        -3.364535         1.424156        -2.820261
 H        -1.721195         1.677979        -3.327072
 H        -0.572584        -0.840551        -1.307881
 H        -0.127815         0.833876        -1.587770
