19
Iteration:  3507
 O         0.147549         0.031767         0.861737
 C        -1.019833         0.468373         0.216837
 C        -2.160299         0.793388         1.255639
 C        -1.433662         1.993819         0.614822
 C        -2.310197         2.871282        -0.156646
 C        -2.430343         2.761099        -1.525141
 C        -1.704514         1.719001        -2.349235
 O        -1.995598         0.346538        -2.103321
 C        -1.049079        -0.306562        -1.185284
 H         0.844123         0.463651         0.325122
 H        -3.188683         0.632232         0.877820
 H        -1.900761         0.372492         2.211265
 H        -0.669569         2.435697         1.102807
 H        -2.618936         3.715490         0.455522
 H        -3.258170         3.304531        -1.973467
 H        -2.045030         1.899636        -3.385236
 H        -0.611918         1.978532        -2.248360
 H        -1.501131        -1.258225        -1.129117
 H        -0.003846        -0.282425        -1.607563
