19
Iteration:     6charge 0 multiplicity 1
 O         0.232896         0.096468         0.993973
 C        -0.946718         0.482680         0.284053
 C        -2.282086         0.503421         0.940679
 C        -1.510838         1.780671         0.672325
 C        -2.046924         2.922060        -0.230157
 C        -2.291093         2.811722        -1.519341
 C        -2.140826         1.667558        -2.474775
 O        -2.036004         0.379899        -1.905197
 C        -0.832029         0.102137        -1.203891
 H         0.173339        -0.908966         1.039505
 H        -3.050758         0.034287         0.279233
 H        -2.292135         0.182506         1.987974
 H        -0.967990         2.235580         1.517231
 H        -2.522278         3.786569         0.294061
 H        -2.933261         3.683106        -1.851821
 H        -3.033414         1.635408        -3.142607
 H        -1.274318         1.894636        -3.176976
 H        -0.597315        -0.990646        -1.193623
 H         0.146718         0.511842        -1.576670
