19
Iteration:   396
 O         0.268876         0.097406         0.976471
 C        -0.930396         0.480720         0.300185
 C        -2.276833         0.517091         0.919094
 C        -1.575030         1.851404         0.565497
 C        -2.079636         2.968269        -0.241877
 C        -2.260887         2.803758        -1.534154
 C        -2.026757         1.649146        -2.418808
 O        -2.104385         0.312244        -1.855991
 C        -0.905379        -0.025336        -1.113651
 H         1.024252         0.254076         0.357327
 H        -3.174788         0.242253         0.344725
 H        -2.402578         0.405624         2.021958
 H        -1.225566         2.301377         1.452834
 H        -2.579467         3.787254         0.258745
 H        -2.777677         3.559067        -2.047421
 H        -2.843308         1.782149        -3.122768
 H        -0.985378         1.688400        -2.912138
 H        -0.714778        -1.093297        -1.137113
 H        -0.105337         0.496684        -1.631179
