19
Iteration:   145charge 0 multiplicity 1
 O         0.361008         0.192074         1.128098
 C        -0.863891         0.442713         0.311238
 C        -2.335360         0.330772         0.798167
 C        -1.541232         1.747642         0.646986
 C        -2.000177         2.876191        -0.264062
 C        -2.165297         2.856070        -1.598169
 C        -2.276727         1.644593        -2.463022
 O        -2.200514         0.423777        -1.776074
 C        -0.839485         0.139898        -1.278149
 H         0.032164        -0.198821         1.915297
 H        -3.098606         0.033171         0.062306
 H        -2.481282        -0.067343         1.838954
 H        -1.260703         2.072093         1.680088
 H        -1.737882         3.868332         0.254773
 H        -2.247191         3.824163        -2.186066
 H        -3.155438         1.587230        -3.150770
 H        -1.478839         1.717448        -3.258069
 H        -0.624213        -0.868915        -1.591027
 H        -0.059415         0.651845        -1.803468
