19
Iteration:  3791
 O         0.185549         0.162055         0.950525
 C        -0.953991         0.525353         0.305248
 C        -2.270650         0.491649         1.087984
 C        -1.528759         1.804960         0.684364
 C        -2.033994         2.852839        -0.276128
 C        -2.245807         2.762181        -1.628779
 C        -1.903442         1.600927        -2.533848
 O        -2.163600         0.394038        -1.902370
 C        -0.965024         0.010022        -1.090325
 H         0.814878         0.679898         0.533450
 H        -3.206395         0.146386         0.628423
 H        -2.024380         0.255544         2.126924
 H        -1.095209         2.163891         1.574709
 H        -2.340865         3.864018         0.205072
 H        -2.802835         3.568006        -2.078566
 H        -2.665937         1.730668        -3.338814
 H        -0.841470         1.725446        -2.989947
 H        -1.056440        -1.091840        -1.073385
 H        -0.129498         0.405937        -1.715548
