19
Iteration:  1399charge 0 multiplicity 1
 O         0.197465        -0.018359         1.127943
 C        -0.855180         0.496361         0.294224
 C        -2.190976         0.509216         1.022621
 C        -1.540699         1.824305         0.630135
 C        -2.074674         2.862666        -0.318889
 C        -2.157179         2.864322        -1.683938
 C        -2.114185         1.624776        -2.502989
 O        -2.199303         0.334005        -1.841660
 C        -0.957593         0.127390        -1.179841
 H         1.033856         0.472949         0.891414
 H        -3.012666         0.137900         0.413967
 H        -2.158855         0.548265         2.121991
 H        -1.030183         2.322515         1.459153
 H        -2.309719         3.746896         0.283061
 H        -2.474479         3.802390        -2.286776
 H        -3.056872         1.649688        -3.056334
 H        -1.267149         1.834567        -3.280556
 H        -0.696743        -0.966823        -1.277641
 H        -0.130984         0.604967        -1.753651
