19
Iteration:  4541
 O         0.010265        -0.080584         1.146087
 C        -0.890121         0.515289         0.293505
 C        -2.212379         0.734246         1.006905
 C        -1.345100         1.981227         0.730707
 C        -2.027577         2.864381        -0.251772
 C        -2.463088         2.708242        -1.527347
 C        -2.110122         1.661117        -2.492454
 O        -2.025164         0.201752        -2.036902
 C        -0.765471         0.115828        -1.266654
 H         0.862226        -0.019064         0.750802
 H        -3.030601         0.719319         0.278794
 H        -2.444334         0.488644         2.050241
 H        -0.875782         2.476568         1.576018
 H        -2.304776         3.684195         0.192355
 H        -3.187928         3.389574        -1.842053
 H        -2.932047         1.713734        -3.261716
 H        -1.043302         1.853972        -2.959175
 H        -0.704536        -1.054506        -1.243778
 H        -0.148508         0.755142        -1.975093
