19
Iteration:  3474charge 0 multiplicity 1
 O         0.256738         0.025802         0.868948
 C        -0.972424         0.602910         0.330013
 C        -2.190987         0.626999         1.206424
 C        -1.447759         1.898832         0.589599
 C        -2.245983         2.727177        -0.254907
 C        -2.386366         2.758268        -1.578584
 C        -1.699753         1.751418        -2.401573
 O        -2.097384         0.446659        -2.075604
 C        -1.160051        -0.108375        -1.051884
 H         1.054905         0.143884         0.197045
 H        -3.120951         0.181817         0.838150
 H        -1.975358         0.378362         2.257929
 H        -1.025664         2.567553         1.226506
 H        -2.673780         3.602903         0.265596
 H        -3.223692         3.268803        -2.114201
 H        -1.810010         1.904120        -3.495526
 H        -0.582589         1.758089        -2.367452
 H        -1.554521        -1.080990        -0.796664
 H        -0.214621        -0.443092        -1.556853
