19
Iteration:  1879charge 0 multiplicity 1
 O         0.167560         0.028114         0.962484
 C        -0.980220         0.484022         0.288174
 C        -2.150820         0.681878         1.137425
 C        -1.397870         1.918807         0.615175
 C        -2.174589         2.886335        -0.226162
 C        -2.452172         2.822102        -1.532266
 C        -1.880887         1.664288        -2.545466
 O        -2.017436         0.352423        -2.010448
 C        -1.055087        -0.141131        -1.102667
 H         0.965059         0.489195         0.608856
 H        -3.026964         0.383624         0.533547
 H        -2.101365         0.405770         2.231530
 H        -0.694248         2.317979         1.332312
 H        -2.668294         3.664792         0.370956
 H        -2.957575         3.647715        -1.990053
 H        -2.455232         1.619150        -3.424290
 H        -0.819539         1.909412        -2.789121
 H        -1.301611        -1.266886        -1.025272
 H        -0.059147        -0.134056        -1.471585
