19
Iteration:  1668
 O         0.009848        -0.067264         1.255549
 C        -0.909163         0.531146         0.284117
 C        -2.211798         0.554718         0.905338
 C        -1.366610         1.889739         0.676769
 C        -1.779917         2.860688        -0.339474
 C        -2.317916         2.764349        -1.609201
 C        -2.394964         1.535728        -2.504170
 O        -2.033285         0.304289        -1.957610
 C        -0.797678         0.292191        -1.195247
 H         1.000352         0.005177         0.988303
 H        -3.155448         0.555126         0.403576
 H        -2.308353         0.203657         1.945073
 H        -0.957217         2.299789         1.595321
 H        -2.119990         3.778482         0.184660
 H        -3.003105         3.599391        -2.010842
 H        -3.380688         1.389463        -2.779437
 H        -1.844621         1.772398        -3.404546
 H        -0.255251        -0.673738        -1.482696
 H        -0.076473         1.047290        -1.595136
