19
Iteration:  2376charge 0 multiplicity 1
 O         0.183531         0.024544         0.917488
 C        -0.999894         0.524597         0.291814
 C        -2.156021         0.623957         1.181414
 C        -1.552375         1.935326         0.766392
 C        -2.170786         2.841595        -0.276011
 C        -2.230749         2.824085        -1.613243
 C        -1.967528         1.635217        -2.544395
 O        -2.045690         0.293737        -2.023695
 C        -0.967723        -0.038530        -1.124163
 H         0.949027         0.553354         0.678398
 H        -3.259496         0.217427         1.061742
 H        -1.680680         0.371868         2.161461
 H        -1.125627         2.540468         1.637522
 H        -2.611451         3.740363         0.231536
 H        -2.750212         3.608604        -2.181058
 H        -2.783329         1.747637        -3.277259
 H        -0.983683         1.811932        -3.054540
 H        -1.214071        -1.086565        -0.896028
 H        -0.019343         0.162979        -1.627532
