19
Iteration:  3051charge 0 multiplicity 1
 O         0.254141         0.099106         0.953771
 C        -0.986713         0.399334         0.296214
 C        -2.164291         0.650930         1.151315
 C        -1.468391         1.862822         0.563632
 C        -2.238754         2.895868        -0.237136
 C        -2.350557         2.814328        -1.545843
 C        -1.819599         1.726243        -2.526109
 O        -2.036810         0.388009        -1.952051
 C        -1.115533        -0.181178        -1.089878
 H         0.853555         0.253196         0.223832
 H        -3.215165         0.505681         0.933516
 H        -1.887087         0.385678         2.200889
 H        -0.898069         2.386169         1.324058
 H        -2.840394         3.715149         0.329267
 H        -2.825378         3.713595        -2.081699
 H        -2.520721         1.753950        -3.511241
 H        -0.750295         1.860674        -2.850716
 H        -1.367441        -1.296675        -1.039390
 H        -0.112805        -0.169427        -1.677923
