19
Iteration:   805charge 0 multiplicity 1
 O         0.242586         0.020487         0.965399
 C        -0.926576         0.566089         0.354512
 C        -2.228420         0.502463         1.078733
 C        -1.540940         1.883921         0.713024
 C        -2.092215         2.876021        -0.316431
 C        -2.286988         2.795712        -1.700258
 C        -2.034748         1.609859        -2.606544
 O        -2.107985         0.422454        -1.771413
 C        -0.933074         0.024104        -1.110212
 H         0.952064        -0.025375         0.229344
 H        -3.169864         0.350968         0.502987
 H        -2.239371         0.189908         2.133864
 H        -1.159613         2.326983         1.601576
 H        -2.154863         3.835935         0.050021
 H        -2.685205         3.720318        -2.085729
 H        -2.807091         1.573025        -3.427802
 H        -1.109661         1.572660        -3.156471
 H        -1.041915        -1.092615        -0.989336
 H        -0.037129         0.287042        -1.684058
