19
Iteration:  4994charge 0 multiplicity 1
 O         0.196393         0.042371         0.993838
 C        -0.924417         0.536060         0.264627
 C        -2.230758         0.460188         1.027609
 C        -1.538836         1.880168         0.689826
 C        -2.109760         2.881467        -0.256753
 C        -2.335124         2.773006        -1.589983
 C        -1.979754         1.668317        -2.481378
 O        -2.024839         0.420123        -1.917924
 C        -0.993238        -0.007020        -1.113115
 H         0.947783         0.388966         0.390701
 H        -3.156000         0.309305         0.438769
 H        -2.289537         0.125077         2.119441
 H        -0.956357         2.416393         1.520250
 H        -2.357083         3.848083         0.196504
 H        -2.655837         3.588579        -2.136822
 H        -2.674797         1.584975        -3.421632
 H        -0.913797         1.888672        -2.870478
 H        -1.144849        -1.152647        -1.002750
 H        -0.017401         0.217347        -1.710761
