19
Iteration:  1951charge 0 multiplicity 1
 O         0.240306         0.133360         0.913701
 C        -0.938325         0.443839         0.349425
 C        -2.217866         0.623668         1.161668
 C        -1.480821         1.827579         0.591057
 C        -2.135749         2.881587        -0.225702
 C        -2.309141         2.821922        -1.578552
 C        -1.868300         1.655893        -2.526893
 O        -2.083179         0.380423        -1.996998
 C        -1.093818        -0.168498        -1.114094
 H         0.836085         0.931450         0.777740
 H        -3.010955         0.126603         0.700037
 H        -2.156138         0.594099         2.234199
 H        -0.912175         2.370713         1.385887
 H        -2.711703         3.665300         0.380693
 H        -2.855826         3.688193        -1.990812
 H        -2.632004         1.878631        -3.417591
 H        -0.759390         1.875839        -2.852474
 H        -1.543465        -1.136952        -1.016075
 H        -0.052032        -0.327809        -1.534315
