19
Iteration:  1105
 O         0.229635         0.115945         0.874092
 C        -1.019724         0.552292         0.242582
 C        -2.221178         0.624522         1.172092
 C        -1.337666         1.957626         0.677471
 C        -2.198965         2.860586        -0.248000
 C        -2.384016         2.687146        -1.530304
 C        -1.758008         1.726589        -2.453100
 O        -2.066940         0.338279        -2.047972
 C        -1.140413        -0.177718        -1.091560
 H         0.859706         0.045701         0.128002
 H        -3.227753         0.561980         0.778687
 H        -2.182268         0.727581         2.306233
 H        -0.808875         2.436386         1.463431
 H        -2.798028         3.546917         0.264827
 H        -3.122889         3.436648        -1.878276
 H        -2.215734         1.729859        -3.483141
 H        -0.650238         1.906018        -2.507130
 H        -1.501089        -1.200627        -0.739572
 H        -0.048737        -0.307474        -1.565763
