19
Iteration:  2867
 O         0.083299        -0.091534         1.074412
 C        -0.968982         0.589418         0.278366
 C        -2.244679         0.562478         0.955570
 C        -1.484901         1.971228         0.791493
 C        -1.903085         2.893863        -0.332684
 C        -2.155415         2.726441        -1.615156
 C        -2.449951         1.540727        -2.448667
 O        -1.925116         0.244481        -2.003962
 C        -0.782495         0.211747        -1.174011
 H         0.395642         0.719193         1.622765
 H        -3.202501         0.553693         0.491099
 H        -2.088847         0.016040         1.842492
 H        -1.156482         2.458618         1.727282
 H        -1.955566         3.962997        -0.002859
 H        -2.451508         3.596728        -2.168078
 H        -3.588208         1.598366        -2.560826
 H        -2.110815         1.606889        -3.486491
 H        -0.336987        -0.824163        -1.251821
 H         0.031352         0.820807        -1.579728
