19
Iteration:  4558
 O         0.067116        -0.052299         1.198245
 C        -0.911123         0.525053         0.233258
 C        -2.173662         0.682471         0.950734
 C        -1.362883         1.926174         0.604578
 C        -2.102522         2.936875        -0.208317
 C        -2.455769         2.733562        -1.492208
 C        -2.075719         1.602421        -2.517764
 O        -2.013897         0.332244        -2.008230
 C        -0.877758        -0.004147        -1.212556
 H         0.988950        -0.034681         0.865815
 H        -3.132431         0.597945         0.477839
 H        -2.032090         0.235664         1.917465
 H        -0.777197         2.355234         1.416907
 H        -2.617506         3.953706         0.248790
 H        -3.022642         3.629458        -1.906192
 H        -2.760842         1.570194        -3.356863
 H        -1.193597         1.917432        -3.055143
 H        -0.691433        -1.023432        -1.227740
 H         0.082656         0.405844        -1.486869
