19
Iteration:  2111
 O         0.135158        -0.044394         0.951487
 C        -1.025919         0.561596         0.364265
 C        -2.381076         0.620925         0.930348
 C        -1.526660         1.929161         0.725143
 C        -1.748202         2.945087        -0.290169
 C        -2.242110         2.759079        -1.534640
 C        -2.343343         1.542770        -2.450188
 O        -1.967068         0.112060        -1.993069
 C        -0.791586         0.250374        -1.114088
 H         0.809760         0.694225         1.138339
 H        -3.069762         0.335163         0.144812
 H        -2.510284         0.277532         1.931766
 H        -1.114518         2.316884         1.685772
 H        -1.576014         3.967782         0.106313
 H        -2.666271         3.700811        -2.120631
 H        -3.363218         1.352272        -2.532856
 H        -2.088933         1.688171        -3.526552
 H        -0.236703        -0.760441        -1.132629
 H         0.021584         0.942878        -1.376555
