19
Iteration:  4111charge 0 multiplicity 1
 O        -0.010908        -0.090265         1.120967
 C        -0.929825         0.553689         0.254182
 C        -2.311499         0.683593         0.951666
 C        -1.392903         1.875440         0.609894
 C        -1.926420         2.974646        -0.270966
 C        -2.392850         2.692696        -1.490300
 C        -2.293827         1.539814        -2.469339
 O        -1.914706         0.243079        -1.956095
 C        -0.711574         0.193919        -1.218934
 H         0.892534         0.163084         0.845629
 H        -3.297320         0.561118         0.509788
 H        -2.273132         0.508589         2.013550
 H        -0.917338         2.167168         1.504034
 H        -1.905665         3.953525         0.130016
 H        -2.895816         3.486912        -1.830667
 H        -3.221075         1.650904        -3.018382
 H        -1.568877         1.871867        -3.134469
 H        -0.437178        -0.933093        -1.270006
 H         0.125332         0.867965        -1.557424
