19
Iteration:  2317charge 0 multiplicity 1
 O         0.191321         0.069333         0.968285
 C        -0.857134         0.534362         0.211472
 C        -2.124081         0.579273         1.046253
 C        -1.494412         1.947399         0.555876
 C        -2.237588         2.958935        -0.250446
 C        -2.408730         2.794747        -1.580129
 C        -1.741858         1.637343        -2.326588
 O        -2.150781         0.398881        -1.962854
 C        -1.098781        -0.196611        -1.076870
 H         1.091934         0.374499         0.570438
 H        -2.957870         0.328050         0.580726
 H        -2.028783         0.445111         2.081309
 H        -0.999981         2.413586         1.356619
 H        -2.676604         3.793104         0.233661
 H        -3.275914         3.247623        -2.090778
 H        -2.064976         1.775966        -3.405223
 H        -0.674341         1.735750        -2.496936
 H        -1.188325        -1.291876        -0.916384
 H        -0.142504        -0.451708        -1.732976
