19
Iteration:   658
 O         0.180648        -0.026820         1.129738
 C        -0.898308         0.482311         0.276587
 C        -2.138061         0.684360         1.009884
 C        -1.325757         1.954128         0.549063
 C        -2.179748         2.870168        -0.232471
 C        -2.523001         2.754269        -1.513696
 C        -2.017274         1.725728        -2.542610
 O        -1.968927         0.391702        -2.029169
 C        -1.025851        -0.097052        -1.118975
 H         0.941387        -0.373045         0.688523
 H        -3.108797         0.605710         0.521313
 H        -2.196647         0.662319         2.099631
 H        -0.699027         2.334235         1.413786
 H        -2.711123         3.719663         0.406293
 H        -3.279441         3.469352        -1.905636
 H        -2.545074         1.550878        -3.429770
 H        -0.980610         2.041098        -2.811815
 H        -1.247493        -1.132513        -0.838196
 H        -0.074990        -0.278996        -1.665107
