19
Iteration:  4017charge 0 multiplicity 1
 O         0.255325         0.174014         1.078635
 C        -0.898207         0.525978         0.332728
 C        -2.298654         0.393758         0.964659
 C        -1.698437         1.778061         0.773554
 C        -1.863607         2.827236        -0.269550
 C        -2.030034         2.731946        -1.661602
 C        -2.214475         1.616609        -2.580264
 O        -2.176590         0.383545        -1.884924
 C        -0.930879         0.128638        -1.162119
 H         1.023828         0.676804         0.726081
 H        -3.147701         0.060828         0.326923
 H        -2.409796         0.141206         2.037105
 H        -1.526743         2.229810         1.734307
 H        -1.894195         3.783124         0.094531
 H        -2.105671         3.752714        -2.182490
 H        -3.241458         1.681349        -2.956869
 H        -1.581171         1.783473        -3.438656
 H        -0.771408        -0.960514        -1.201390
 H        -0.206445         0.820538        -1.777036
