19
Iteration:  3466
 O         0.254593         0.057124         0.911179
 C        -0.932023         0.507706         0.257215
 C        -2.118533         0.655576         1.219896
 C        -1.496025         1.915233         0.678139
 C        -2.314652         2.720688        -0.235892
 C        -2.354376         2.837909        -1.618085
 C        -1.674714         1.728061        -2.482919
 O        -2.106152         0.446264        -2.023778
 C        -1.193946        -0.161814        -1.115749
 H         1.068803         0.104977         0.291206
 H        -3.026119         0.269880         0.715530
 H        -2.009451         0.400366         2.250935
 H        -1.022955         2.523830         1.463187
 H        -2.828611         3.596908         0.217810
 H        -3.067099         3.477764        -2.046371
 H        -1.996987         1.839253        -3.455331
 H        -0.593462         1.662884        -2.448052
 H        -1.504031        -1.159086        -0.808969
 H        -0.200183        -0.284317        -1.592068
