19
Iteration:  2308charge 0 multiplicity 1
 O         0.216112         0.017640         0.967040
 C        -0.875518         0.490525         0.228052
 C        -2.073979         0.643182         0.972675
 C        -1.491919         2.014847         0.593945
 C        -2.357043         2.945885        -0.252974
 C        -2.354651         2.793697        -1.579945
 C        -1.752960         1.688844        -2.342027
 O        -2.120273         0.332662        -1.912273
 C        -1.102642        -0.179970        -1.103320
 H         0.999175         0.249192         0.357936
 H        -2.936560         0.284526         0.530735
 H        -1.971537         0.364943         2.007092
 H        -0.986164         2.376094         1.465348
 H        -2.759784         3.836587         0.087103
 H        -3.086352         3.394511        -2.106585
 H        -2.214058         1.691034        -3.363285
 H        -0.628658         1.676607        -2.375909
 H        -1.518224        -1.177257        -0.775424
 H        -0.143319        -0.141331        -1.677031
