19
Iteration:  1099charge 0 multiplicity 1
 O         0.210600         0.053453         0.902097
 C        -0.955265         0.565865         0.313033
 C        -2.185739         0.689336         1.170117
 C        -1.352113         1.977288         0.614789
 C        -2.230580         2.841342        -0.205161
 C        -2.417359         2.702130        -1.512017
 C        -1.778746         1.706460        -2.457042
 O        -2.068978         0.314809        -2.113454
 C        -1.116768        -0.181751        -1.108879
 H         1.010386         0.084234         0.269006
 H        -3.230756         0.637504         0.803646
 H        -2.163831         0.691424         2.231295
 H        -0.976205         2.570550         1.494197
 H        -2.754685         3.650472         0.392607
 H        -3.006466         3.508563        -1.962735
 H        -2.183331         1.899193        -3.469689
 H        -0.693542         1.829408        -2.473194
 H        -1.407147        -1.158656        -0.792954
 H        -0.234677        -0.294887        -1.674084
