19
Iteration:  4052charge 0 multiplicity 1
 O         0.159903         0.102208         1.054201
 C        -0.969054         0.461825         0.309830
 C        -2.322518         0.420657         0.925948
 C        -1.719936         1.765863         0.697474
 C        -1.789146         2.898072        -0.326727
 C        -2.063666         2.801223        -1.659563
 C        -2.275538         1.598008        -2.433282
 O        -2.106089         0.339060        -1.771199
 C        -0.794416         0.204979        -1.234195
 H         0.794256         0.792850         0.957521
 H        -3.196042         0.122185         0.334015
 H        -2.286514         0.095619         1.974292
 H        -1.364905         2.082457         1.713335
 H        -1.804555         4.007366        -0.050886
 H        -2.206911         3.770144        -2.362726
 H        -3.353702         1.481099        -2.637580
 H        -1.805399         1.439497        -3.360830
 H        -0.188076        -0.781984        -1.488530
 H        -0.053564         1.037662        -1.728302
