19
Iteration:   934charge 0 multiplicity 1
 O         0.153945         0.008486         1.006206
 C        -0.936024         0.578690         0.306860
 C        -2.194345         0.412780         0.935346
 C        -1.646152         1.797506         0.742230
 C        -1.783630         2.884368        -0.321816
 C        -2.143401         2.765568        -1.669256
 C        -2.424480         1.531792        -2.572830
 O        -2.129207         0.355929        -1.772510
 C        -0.779037         0.309789        -1.167296
 H         0.251299         0.688204         1.625607
 H        -3.183474         0.349485         0.438124
 H        -2.106561         0.112887         1.991700
 H        -1.306346         2.089382         1.700538
 H        -1.443622         3.807823         0.003422
 H        -1.972309         3.722608        -2.129585
 H        -3.421820         1.303366        -2.847003
 H        -1.738063         1.532544        -3.447988
 H        -0.486588        -0.701308        -1.155135
 H         0.079433         0.814318        -1.733973
