19
Iteration:    71
 O         0.117209         0.061340         1.064340
 C        -0.985527         0.534872         0.253762
 C        -2.297184         0.556416         0.977941
 C        -1.362219         1.852171         0.753439
 C        -1.927459         2.841026        -0.166554
 C        -2.281960         2.799139        -1.485609
 C        -2.210728         1.605688        -2.489249
 O        -1.987579         0.198803        -2.084945
 C        -0.826030         0.313858        -1.270180
 H        -0.046070        -0.916338         1.219441
 H        -3.306790         0.440511         0.546292
 H        -2.251772         0.257978         2.047865
 H        -0.862815         2.080333         1.713314
 H        -2.396996         3.666896         0.398592
 H        -3.180172         3.446321        -1.761939
 H        -3.243439         1.567735        -2.946854
 H        -1.524517         1.744589        -3.372598
 H        -0.237357        -0.638777        -1.465399
 H        -0.133312         1.071741        -1.713237
