19
Iteration:  3945charge 0 multiplicity 1
 O         0.150463        -0.081595         1.123025
 C        -0.925385         0.533530         0.281935
 C        -2.199118         0.698929         1.027812
 C        -1.301504         1.942200         0.573620
 C        -2.156572         2.841502        -0.269517
 C        -2.527419         2.688886        -1.505737
 C        -1.920737         1.715167        -2.485698
 O        -2.055999         0.355503        -2.058185
 C        -0.975800        -0.049856        -1.143609
 H         1.002410         0.173906         0.777210
 H        -3.176997         0.739783         0.529509
 H        -2.263625         0.571030         2.105735
 H        -0.797837         2.394799         1.481477
 H        -2.633085         3.759107         0.463066
 H        -3.198871         3.506645        -1.964308
 H        -2.368413         1.864922        -3.527725
 H        -0.737024         1.840565        -2.685904
 H        -1.064672        -1.199342        -1.166634
 H        -0.011487         0.433696        -1.574282
