19
Iteration:  1022charge 0 multiplicity 1
 O         0.245267        -0.028922         1.078905
 C        -0.931977         0.496211         0.292381
 C        -2.231115         0.646020         1.063911
 C        -1.383938         1.944053         0.668621
 C        -2.112834         2.923711        -0.238511
 C        -2.333057         2.837561        -1.534173
 C        -2.049938         1.626956        -2.549972
 O        -2.137039         0.286354        -1.989451
 C        -0.940126        -0.020549        -1.186252
 H         1.041951         0.042112         0.597633
 H        -3.043546         0.328242         0.389076
 H        -2.405661         0.267497         2.135421
 H        -1.178953         2.392346         1.665324
 H        -2.414650         3.892867         0.219514
 H        -2.919873         3.653476        -2.028347
 H        -2.818013         1.693263        -3.378692
 H        -1.082867         1.733326        -3.111177
 H        -0.841110        -1.092749        -1.078820
 H        -0.085978         0.440016        -1.805755
