19
Iteration:  4261charge 0 multiplicity 1
 O         0.294116         0.199938         0.851893
 C        -1.027931         0.527568         0.315173
 C        -2.209421         0.491601         1.267232
 C        -1.586162         1.827981         0.606358
 C        -2.210165         2.810141        -0.255522
 C        -2.181617         2.851607        -1.616567
 C        -1.738528         1.672730        -2.517500
 O        -2.125207         0.349705        -1.990904
 C        -1.175115        -0.126857        -1.087631
 H         1.014055         0.877120         0.496495
 H        -3.165665         0.112982         0.938021
 H        -1.957508         0.340875         2.321649
 H        -1.056891         2.311281         1.373772
 H        -2.683086         3.777860         0.339215
 H        -2.633229         3.718490        -2.023454
 H        -2.390048         1.848037        -3.380440
 H        -0.643366         1.747760        -2.764120
 H        -1.348626        -1.256514        -0.936545
 H        -0.108346        -0.009050        -1.463971
