19
Iteration:   665
 O         0.115239        -0.029639         1.098210
 C        -0.893674         0.470138         0.220192
 C        -2.152953         0.675498         1.044727
 C        -1.253262         1.971218         0.581293
 C        -2.232549         2.795164        -0.224738
 C        -2.510654         2.726019        -1.582261
 C        -1.964196         1.767170        -2.510838
 O        -1.999676         0.437068        -1.953204
 C        -0.951841        -0.127120        -1.126202
 H         1.002867        -0.003131         0.598499
 H        -3.137618         0.804342         0.615129
 H        -2.147648         0.613149         2.146439
 H        -0.684809         2.491400         1.307821
 H        -2.669382         3.595519         0.267481
 H        -3.343003         3.307876        -1.887874
 H        -2.595645         1.593788        -3.449672
 H        -1.016940         2.036889        -3.006786
 H        -1.570957        -1.040904        -0.905199
 H         0.013749        -0.333745        -1.607036
