19
Iteration:  2341charge 0 multiplicity 1
 O         0.222520         0.178316         0.962279
 C        -1.018129         0.365836         0.278640
 C        -2.186316         0.675072         1.111209
 C        -1.388108         1.866035         0.618352
 C        -2.160582         2.792806        -0.260368
 C        -2.431577         2.766051        -1.587856
 C        -1.827843         1.735167        -2.432658
 O        -2.095387         0.347251        -1.976068
 C        -1.093323        -0.137338        -1.125703
 H         0.733440         0.913482         0.563057
 H        -3.177087         0.509157         0.705812
 H        -2.018248         0.386430         2.130965
 H        -0.776966         2.345308         1.398313
 H        -2.384176         3.750951         0.095020
 H        -2.896002         3.648841        -1.963078
 H        -2.074653         1.745904        -3.533376
 H        -0.715501         1.880449        -2.460446
 H        -1.207502        -1.243582        -1.096883
 H        -0.067709        -0.191488        -1.616547
