19
Iteration:  2477
 O         0.142326        -0.051879         1.066742
 C        -0.902550         0.571326         0.340273
 C        -2.290398         0.567292         0.928553
 C        -1.514121         1.925062         0.714813
 C        -1.861864         2.973330        -0.311772
 C        -2.202695         2.777866        -1.581508
 C        -2.375009         1.452255        -2.487780
 O        -2.067444         0.238105        -1.984493
 C        -0.775384         0.212515        -1.154318
 H         0.773783         0.662956         1.426460
 H        -3.097455         0.342570         0.233359
 H        -2.251506         0.126037         1.964547
 H        -1.237318         2.281824         1.666310
 H        -2.085226         3.940088         0.193749
 H        -2.506325         3.701853        -2.068996
 H        -3.431074         1.449246        -2.712600
 H        -1.766312         1.673375        -3.311340
 H        -0.374031        -0.777419        -1.201912
 H         0.029625         0.774105        -1.663791
