19
Iteration:  2420charge 0 multiplicity 1
 O         0.228143         0.074372         1.078324
 C        -0.974303         0.494608         0.312720
 C        -2.293926         0.532722         0.958242
 C        -1.505278         1.847069         0.622782
 C        -1.962889         2.820264        -0.321164
 C        -2.267324         2.849542        -1.608596
 C        -2.138448         1.592484        -2.501427
 O        -2.060801         0.331119        -1.811078
 C        -0.859652         0.043553        -1.168897
 H         0.970136         0.242866         0.516478
 H        -3.287538         0.571308         0.314822
 H        -2.423564         0.384891         2.075895
 H        -1.219836         2.417451         1.581834
 H        -2.312103         3.804090         0.120604
 H        -2.968092         3.678854        -1.830551
 H        -3.036192         1.584785        -3.142729
 H        -1.322278         1.674932        -3.188919
 H        -0.565232        -1.000617        -1.403797
 H        -0.297887         0.903327        -1.612162
