19
Iteration:  3904charge 0 multiplicity 1
 O         0.122579        -0.049620         0.927470
 C        -1.046971         0.553790         0.270409
 C        -2.159895         0.741357         1.229790
 C        -1.376452         1.986038         0.567628
 C        -2.284993         2.784906        -0.225319
 C        -2.515842         2.731538        -1.498195
 C        -1.795684         1.751175        -2.458539
 O        -1.932369         0.339085        -2.107038
 C        -1.024880        -0.175940        -1.116264
 H         0.918239         0.190070         0.317349
 H        -3.227976         0.817482         1.055473
 H        -1.848264         0.480076         2.222987
 H        -0.548299         2.527255         1.150522
 H        -2.589779         3.670501         0.369845
 H        -2.987913         3.567191        -1.992773
 H        -2.106246         1.634388        -3.511583
 H        -0.772241         2.089236        -2.471847
 H        -1.289840        -1.154366        -0.864253
 H         0.044460        -0.013515        -1.422047
