19
Iteration:  1632
 O         0.093217        -0.168442         1.020804
 C        -0.894673         0.547962         0.276989
 C        -2.209393         0.593373         0.954925
 C        -1.512095         1.916261         0.670699
 C        -2.000459         2.892551        -0.362369
 C        -2.288203         2.819632        -1.630854
 C        -2.214784         1.582842        -2.448018
 O        -2.044668         0.321893        -1.791062
 C        -0.792960         0.163013        -1.163224
 H         0.812022         0.540715         1.174774
 H        -3.161288         0.509371         0.365363
 H        -2.123484         0.392262         2.026808
 H        -1.085736         2.402838         1.530158
 H        -2.191163         3.865756         0.075185
 H        -2.633845         3.717366        -2.130045
 H        -3.147128         1.401631        -2.976858
 H        -1.463222         1.653892        -3.238228
 H        -0.631270        -0.996119        -1.278844
 H        -0.015380         0.778361        -1.574999
