19
Iteration:  3626charge 0 multiplicity 1
 O         0.184381         0.140473         1.132685
 C        -0.914882         0.537126         0.336888
 C        -2.294301         0.386748         0.887686
 C        -1.506806         1.819636         0.750627
 C        -1.838421         2.865857        -0.286819
 C        -2.171189         2.788356        -1.613154
 C        -2.289508         1.599817        -2.491691
 O        -2.141074         0.320857        -1.958829
 C        -0.896898         0.135397        -1.163293
 H         0.920751         0.850955         0.920578
 H        -3.078554         0.384550         0.139842
 H        -2.464782        -0.017110         1.904227
 H        -1.202656         2.190544         1.674471
 H        -1.845183         3.867755        -0.048025
 H        -2.087259         3.726500        -2.117919
 H        -3.386089         1.504240        -2.902316
 H        -1.610630         1.680726        -3.291360
 H        -0.687398        -0.951534        -1.174472
 H        -0.122181         0.702615        -1.699505
