19
Iteration:  1727charge 0 multiplicity 1
 O         0.087617        -0.033634         1.009121
 C        -0.950423         0.636203         0.274317
 C        -2.274680         0.507797         0.862284
 C        -1.537069         1.913854         0.654925
 C        -1.906445         2.951502        -0.226736
 C        -2.046331         2.775119        -1.598131
 C        -2.400346         1.520814        -2.328445
 O        -2.020117         0.183284        -1.972295
 C        -0.751049         0.197224        -1.161342
 H         0.762293         0.554961         1.312266
 H        -3.112225         0.300382         0.177379
 H        -2.409248         0.501649         1.928583
 H        -1.223386         2.234775         1.650887
 H        -2.048981         3.913643         0.303781
 H        -2.248104         3.626649        -2.165143
 H        -3.518964         1.583524        -2.269862
 H        -2.196250         1.698775        -3.370294
 H        -0.527030        -0.773590        -0.963031
 H         0.029758         0.841981        -1.698711
