19
Iteration:  4038
 O         0.145816         0.191988         1.036317
 C        -0.999178         0.468464         0.291014
 C        -2.305522         0.311469         0.964999
 C        -1.647822         1.762018         0.669363
 C        -1.835129         2.845637        -0.303983
 C        -2.024400         2.833139        -1.690231
 C        -2.305075         1.563265        -2.482395
 O        -2.127852         0.332439        -1.774312
 C        -0.849366         0.226869        -1.137666
 H         0.882807         0.863902         0.731730
 H        -3.147335         0.059272         0.281215
 H        -2.436220        -0.016460         2.008717
 H        -1.130192         2.203683         1.490030
 H        -1.405805         3.661267         0.104054
 H        -1.936519         3.805049        -2.200727
 H        -3.271130         1.648318        -2.966969
 H        -1.499552         1.784853        -3.267564
 H        -0.449802        -0.703945        -1.347135
 H        -0.118696         1.086387        -1.526499
