19
Iteration:  4524charge 0 multiplicity 1
 O         0.039650        -0.157999         1.048259
 C        -0.964335         0.579008         0.267128
 C        -2.297270         0.747791         0.980950
 C        -1.354173         1.971043         0.688029
 C        -1.950354         2.886493        -0.258472
 C        -2.443706         2.669048        -1.491986
 C        -2.179773         1.546564        -2.536275
 O        -1.942810         0.279669        -1.996457
 C        -0.802624         0.178444        -1.146912
 H         0.840535         0.254377         0.855505
 H        -3.278691         0.610490         0.486579
 H        -2.221287         0.312229         2.011984
 H        -0.774216         2.286057         1.584174
 H        -2.263996         3.870227         0.393486
 H        -3.017338         3.503990        -2.034755
 H        -3.004884         1.357607        -3.213399
 H        -1.245882         1.839632        -2.970283
 H        -0.514491        -0.868050        -1.199764
 H         0.022546         0.856149        -1.550319
