19
Iteration:  4625
 O         0.246405         0.210737         0.876654
 C        -0.982127         0.572139         0.268199
 C        -2.186264         0.420900         1.106175
 C        -1.658736         1.860412         0.742220
 C        -2.108545         2.781021        -0.258738
 C        -2.080083         2.810817        -1.586090
 C        -1.875975         1.650146        -2.533793
 O        -2.202635         0.381669        -1.926423
 C        -1.100116        -0.078854        -1.086641
 H         0.891558         0.948008         0.652595
 H        -3.141234         0.185462         0.726736
 H        -1.908891        -0.010771         2.039310
 H        -1.263197         2.278212         1.633869
 H        -2.620142         3.681322         0.243918
 H        -2.330039         3.697491        -2.055802
 H        -2.358847         1.734319        -3.514036
 H        -0.734375         1.598895        -2.851295
 H        -0.931157        -1.062048        -1.033756
 H        -0.223607         0.194245        -1.640037
