19
Iteration:  3514
 O         0.143780         0.037405         0.908325
 C        -1.041524         0.514666         0.188563
 C        -2.152384         0.762415         1.218225
 C        -1.428489         1.955402         0.525026
 C        -2.287807         2.847208        -0.143707
 C        -2.397677         2.751967        -1.487487
 C        -1.749557         1.743318        -2.317169
 O        -1.987968         0.285329        -2.114700
 C        -1.058616        -0.228972        -1.218698
 H         0.882671         0.400825         0.515530
 H        -3.236991         0.747590         1.116071
 H        -1.838540         0.572850         2.275551
 H        -0.541546         2.407008         1.233153
 H        -2.853632         3.613607         0.380656
 H        -3.045331         3.572974        -1.993419
 H        -2.169847         2.047437        -3.392866
 H        -0.662197         1.946255        -2.240927
 H        -1.384613        -1.297433        -0.890060
 H        -0.068327        -0.410823        -1.667833
