19
Iteration:  3901charge 0 multiplicity 1
 O         0.131152        -0.039958         0.913054
 C        -1.052048         0.540806         0.292065
 C        -2.158876         0.761472         1.241581
 C        -1.387703         1.961037         0.551338
 C        -2.288424         2.787175        -0.206440
 C        -2.498097         2.719026        -1.521165
 C        -1.789939         1.756165        -2.438283
 O        -1.929000         0.325883        -2.105586
 C        -1.037351        -0.144621        -1.124658
 H         0.873694         0.223845         0.303571
 H        -3.233831         0.731255         1.021767
 H        -1.836003         0.466596         2.238538
 H        -0.588928         2.454115         1.114537
 H        -2.583962         3.772410         0.399351
 H        -2.993264         3.596535        -2.035781
 H        -2.099775         1.679592        -3.484951
 H        -0.761518         2.029474        -2.472407
 H        -1.340683        -1.180848        -0.885780
 H         0.058850        -0.006114        -1.436483
