19
Iteration:  3697
 O         0.014942        -0.133391         1.204121
 C        -0.859018         0.585303         0.336239
 C        -2.271623         0.611320         0.795050
 C        -1.472024         1.952086         0.744805
 C        -1.850336         2.903867        -0.275853
 C        -2.248167         2.719494        -1.569661
 C        -2.429823         1.505766        -2.419356
 O        -2.002009         0.196804        -1.959386
 C        -0.715700         0.342689        -1.283751
 H         1.005961         0.142235         1.136851
 H        -2.963204         0.383414        -0.027002
 H        -2.409668         0.196279         1.780842
 H        -1.263041         2.438636         1.780900
 H        -1.991483         3.956165         0.079752
 H        -2.459704         3.596290        -2.256689
 H        -3.511483         1.418025        -2.514504
 H        -1.937974         1.667554        -3.427460
 H        -0.159809        -0.600639        -1.439118
 H        -0.169749         1.247400        -1.727674
