19
Iteration:  4455charge 0 multiplicity 1
 O         0.167298         0.196542         1.108070
 C        -0.906742         0.536175         0.312530
 C        -2.347872         0.407464         0.847120
 C        -1.619998         1.765875         0.716501
 C        -1.799858         2.830803        -0.273002
 C        -2.085913         2.824688        -1.617556
 C        -2.305423         1.564773        -2.508529
 O        -2.146483         0.331147        -1.787170
 C        -0.872011         0.170798        -1.240558
 H         0.933534         0.698284         0.770745
 H        -3.095945         0.093179         0.114457
 H        -2.430420        -0.065305         1.820081
 H        -1.167026         2.101606         1.609456
 H        -1.718337         3.884625         0.032614
 H        -2.097136         3.761893        -2.051001
 H        -3.285508         1.424326        -2.962533
 H        -1.442224         1.568547        -3.181320
 H        -0.527393        -0.972992        -1.253788
 H        -0.068949         0.777360        -1.637844
