19
Iteration:  1525charge 0 multiplicity 1
 O         0.369546        -0.039714         0.865570
 C        -0.937428         0.436666         0.394501
 C        -2.200970         0.684728         1.163199
 C        -1.515088         1.851959         0.640830
 C        -2.263857         2.861306        -0.318419
 C        -2.338401         2.775114        -1.673550
 C        -1.745641         1.698575        -2.483460
 O        -2.192500         0.440289        -1.918760
 C        -1.119102        -0.063293        -1.063837
 H         1.096134         0.489846         0.360360
 H        -3.161183         0.186360         0.823320
 H        -2.272267         0.681465         2.296659
 H        -1.099658         2.442522         1.413596
 H        -2.738826         3.742341         0.118991
 H        -2.866229         3.657673        -2.061196
 H        -2.194136         1.820562        -3.509143
 H        -0.581918         1.692386        -2.568125
 H        -1.265313        -1.133238        -1.149369
 H        -0.119213        -0.012314        -1.563789
