19
Iteration:  4389
 O         0.162184         0.029603         1.072300
 C        -0.948636         0.517051         0.303910
 C        -2.221254         0.579951         1.069959
 C        -1.584918         1.873212         0.713306
 C        -1.998527         2.817994        -0.273363
 C        -2.196071         2.750547        -1.570806
 C        -2.170924         1.609672        -2.559605
 O        -2.038704         0.355220        -1.961174
 C        -0.936520         0.101522        -1.223228
 H         0.912792         0.611935         1.086703
 H        -2.990083         0.146236         0.482067
 H        -2.159002         0.299008         2.094188
 H        -1.190145         2.324419         1.600057
 H        -2.080314         3.870537         0.107591
 H        -2.510113         3.597945        -2.077620
 H        -3.044019         1.666673        -3.209884
 H        -1.285290         1.865762        -3.202635
 H        -0.728578        -1.108106        -1.224695
 H        -0.035873         0.484917        -1.730311
