19
Iteration:   509charge 0 multiplicity 1
 O         0.215804        -0.013395         0.970479
 C        -0.890833         0.599324         0.344708
 C        -2.306436         0.581030         0.936190
 C        -1.525702         1.926048         0.759929
 C        -1.983116         2.909614        -0.234801
 C        -2.158866         2.780060        -1.582490
 C        -2.275501         1.545884        -2.499864
 O        -2.073702         0.158692        -1.948769
 C        -0.823568         0.250186        -1.207338
 H         0.139812         0.063981         1.892682
 H        -3.059592         0.328713         0.202372
 H        -2.334527         0.032667         1.868785
 H        -1.201163         2.334889         1.769288
 H        -2.167729         3.937140         0.141855
 H        -2.178121         3.751455        -2.167140
 H        -3.396885         1.437643        -2.657451
 H        -1.714647         1.553491        -3.474022
 H        -0.534097        -0.820076        -1.175469
 H        -0.065408         0.863860        -1.725354
