19
Iteration:  3364
 O         0.066768        -0.021088         1.071948
 C        -0.902493         0.530284         0.227638
 C        -2.267733         0.535268         0.955090
 C        -1.497037         1.858781         0.659989
 C        -2.050638         2.963726        -0.255926
 C        -2.217538         2.817528        -1.579732
 C        -2.207745         1.561461        -2.417745
 O        -2.023286         0.311619        -1.850342
 C        -0.810200         0.097745        -1.243326
 H         0.914534         0.436113         0.932422
 H        -3.234572         0.303346         0.455446
 H        -2.137932         0.096206         1.971203
 H        -0.897904         2.425019         1.374815
 H        -1.988759         3.957178         0.233329
 H        -2.491715         3.722451        -2.244115
 H        -3.206171         1.563152        -2.894757
 H        -1.520836         1.712205        -3.286710
 H        -0.513748        -0.966285        -1.222395
 H         0.003437         0.638175        -1.786820
