19
Iteration:  3130
 O         0.190319         0.130240         0.956250
 C        -1.016827         0.464080         0.207277
 C        -2.232163         0.694242         1.139675
 C        -1.361712         1.886520         0.664183
 C        -2.123955         2.831620        -0.202668
 C        -2.475841         2.807880        -1.492053
 C        -1.902032         1.684949        -2.453406
 O        -1.965765         0.320265        -2.081093
 C        -1.111838        -0.176919        -1.103483
 H         0.883906         0.428897         0.425915
 H        -3.283262         0.467109         0.732892
 H        -2.021112         0.377185         2.186351
 H        -0.632722         2.288165         1.304214
 H        -2.446820         3.853871         0.206472
 H        -2.834912         3.729350        -1.938506
 H        -2.264884         1.751987        -3.490684
 H        -0.805863         1.869065        -2.652766
 H        -1.194114        -1.298206        -1.163721
 H        -0.119054        -0.064624        -1.506210
