19
Iteration:   543charge 0 multiplicity 1
 O         0.232500         0.179052         0.994454
 C        -0.963862         0.439648         0.301727
 C        -2.328809         0.376364         0.886213
 C        -1.562520         1.724592         0.597871
 C        -1.799767         2.909743        -0.350105
 C        -2.261458         2.869460        -1.654990
 C        -2.239720         1.531792        -2.504739
 O        -2.111460         0.419786        -1.656465
 C        -0.794888         0.171820        -1.131755
 H         0.112834         0.102862         1.915214
 H        -3.108313        -0.015471         0.254828
 H        -2.389669        -0.036639         1.894109
 H        -1.230222         2.237093         1.548923
 H        -1.845780         3.877735         0.117796
 H        -2.398567         3.919500        -2.079623
 H        -3.326307         1.495072        -2.966145
 H        -1.576085         1.648768        -3.422716
 H        -0.552582        -0.869219        -1.448571
 H        -0.018224         0.701860        -1.724553
