19
Iteration:  4653charge 0 multiplicity 1
 O         0.251392         0.274961         0.871199
 C        -1.000888         0.500623         0.331293
 C        -2.216565         0.424557         1.227091
 C        -1.664425         1.816250         0.612862
 C        -2.143901         2.858580        -0.236706
 C        -2.075332         2.783979        -1.552884
 C        -1.924580         1.721940        -2.449065
 O        -2.097521         0.382452        -2.012509
 C        -1.094253        -0.184777        -1.154730
 H         0.947106         0.833859         0.349260
 H        -3.095604        -0.006428         0.696812
 H        -2.185734         0.321291         2.327175
 H        -1.153230         2.270679         1.512293
 H        -2.385935         3.845044         0.196608
 H        -2.231365         3.749464        -2.170973
 H        -2.576976         1.873343        -3.324109
 H        -1.016821         1.858292        -2.982501
 H        -1.146176        -1.355534        -0.900696
 H         0.003535        -0.039631        -1.557004
