19
Iteration:  1003
 O         0.108618         0.068473         1.004071
 C        -0.908173         0.617638         0.219337
 C        -2.128788         0.466939         0.958342
 C        -1.628055         1.871290         0.728115
 C        -1.958261         2.970960        -0.296639
 C        -2.219789         2.772353        -1.554345
 C        -2.162646         1.603117        -2.431895
 O        -2.092767         0.296052        -1.919698
 C        -0.918218         0.041137        -1.120011
 H         0.954208         0.122358         0.545089
 H        -3.086578         0.215013         0.501196
 H        -2.093068         0.097837         1.985386
 H        -1.050866         2.438007         1.519300
 H        -2.053159         3.890100         0.331306
 H        -2.403278         3.748145        -2.119817
 H        -3.008036         1.616307        -3.054615
 H        -1.255590         1.767797        -3.098090
 H        -1.004172        -1.084685        -1.060128
 H         0.014472         0.156683        -1.708714
