19
Iteration:  2858
 O         0.116709        -0.033737         1.126180
 C        -0.896883         0.544019         0.283108
 C        -2.282941         0.609395         0.973486
 C        -1.483236         1.836948         0.752225
 C        -1.879261         2.877702        -0.276715
 C        -2.152688         2.715986        -1.643012
 C        -2.433997         1.586754        -2.536041
 O        -2.015478         0.250369        -1.993066
 C        -0.731159         0.248339        -1.201904
 H         0.450749         0.719342         1.741078
 H        -3.283043         0.656100         0.442554
 H        -2.336218         0.150691         1.970061
 H        -1.240487         2.145816         1.712580
 H        -1.862561         3.998650        -0.026250
 H        -2.669142         3.620067        -2.139653
 H        -3.559215         1.366856        -2.463363
 H        -1.976735         1.625817        -3.494847
 H        -0.518378        -0.793597        -1.061926
 H        -0.106154         0.923216        -1.804639
