19
Iteration:  3224
 O         0.198018         0.023361         1.111474
 C        -0.922797         0.519458         0.387487
 C        -2.280980         0.348675         0.951379
 C        -1.520708         1.875629         0.660592
 C        -1.865274         2.859080        -0.352101
 C        -2.286237         2.797343        -1.644867
 C        -2.247715         1.689954        -2.547954
 O        -2.122301         0.358766        -1.854486
 C        -0.863293         0.114545        -1.115904
 H         1.005713         0.653444         0.952361
 H        -3.069255         0.100910         0.174539
 H        -2.466204         0.223890         2.020373
 H        -1.108092         2.228616         1.621973
 H        -1.702212         3.887863         0.040496
 H        -2.460735         3.808312        -2.264301
 H        -3.240521         1.653827        -3.077304
 H        -1.556459         1.912451        -3.424878
 H        -0.492228        -0.879556        -1.303746
 H        -0.094752         0.751760        -1.681072
