19
Iteration:  2476charge 0 multiplicity 1
 O         0.136731        -0.049932         1.070475
 C        -0.894482         0.575697         0.345810
 C        -2.285016         0.564309         0.933952
 C        -1.522817         1.918994         0.714950
 C        -1.857182         2.976415        -0.317158
 C        -2.208033         2.785205        -1.585703
 C        -2.374677         1.451441        -2.487224
 O        -2.071275         0.236513        -1.986655
 C        -0.775394         0.206594        -1.158837
 H         0.760186         0.660081         1.442618
 H        -3.070587         0.323762         0.174301
 H        -2.234547         0.121137         1.990214
 H        -1.213041         2.278968         1.696805
 H        -2.090014         3.959450         0.195764
 H        -2.532972         3.719176        -2.054466
 H        -3.438892         1.481735        -2.682268
 H        -1.735304         1.678459        -3.305256
 H        -0.371202        -0.802352        -1.201167
 H         0.077496         0.760397        -1.726263
