19
Iteration:  4427charge 0 multiplicity 1
 O         0.219220         0.154868         0.996672
 C        -0.937705         0.481695         0.341087
 C        -2.333431         0.386185         0.938911
 C        -1.721177         1.794216         0.649714
 C        -1.934718         2.894629        -0.321512
 C        -1.984912         2.804959        -1.630059
 C        -2.220203         1.582684        -2.445142
 O        -2.130854         0.357080        -1.775310
 C        -0.871433         0.140031        -1.182007
 H         0.882949         0.638424         0.561716
 H        -3.072263        -0.132656         0.272620
 H        -2.469959         0.149519         2.030002
 H        -1.328311         2.174590         1.638504
 H        -1.787028         3.992839         0.106487
 H        -2.049593         3.814200        -2.229515
 H        -3.270987         1.454513        -2.812283
 H        -1.418347         1.516772        -3.223337
 H        -0.551254        -0.826834        -1.366433
 H        -0.123224         0.932769        -1.501123
