19
Iteration:  2009charge 0 multiplicity 1
 O         0.263553         0.077647         0.950396
 C        -0.983647         0.512417         0.378679
 C        -2.333908         0.556462         1.043491
 C        -1.505362         1.884648         0.669654
 C        -1.987980         2.838743        -0.297078
 C        -2.278780         2.763646        -1.607231
 C        -2.005139         1.609419        -2.487665
 O        -2.137643         0.327323        -1.896244
 C        -0.969839         0.060211        -1.115669
 H         0.948469         0.512448         0.469800
 H        -3.272324         0.374339         0.428753
 H        -2.258223         0.229360         2.085540
 H        -0.940952         2.310449         1.468957
 H        -2.281904         3.789076         0.085914
 H        -2.567163         3.660446        -2.065805
 H        -2.834672         1.571536        -3.233784
 H        -0.985074         1.705598        -3.113409
 H        -0.769107        -1.060274        -1.224269
 H        -0.095253         0.637332        -1.549569
