19
Iteration:  3641charge 0 multiplicity 1
 O         0.271889         0.071886         1.122135
 C        -0.998341         0.439520         0.375684
 C        -2.372032         0.481490         0.883763
 C        -1.583799         1.814266         0.733786
 C        -1.782497         2.908690        -0.322543
 C        -2.131786         2.839504        -1.595568
 C        -2.416121         1.553500        -2.545244
 O        -2.037525         0.261516        -1.910058
 C        -0.868633         0.241805        -1.168656
 H         0.880105         0.819033         1.000961
 H        -3.037640         0.122818         0.091814
 H        -2.539773         0.029758         1.873195
 H        -1.138600         2.189626         1.687074
 H        -1.585706         3.868914         0.310148
 H        -2.344952         3.723419        -2.240095
 H        -3.449325         1.533256        -2.864344
 H        -1.925404         1.698787        -3.604045
 H        -0.509156        -0.771788        -1.215131
 H        -0.072043         1.018194        -1.537455
