19
Iteration:  1042
 O         0.146508        -0.051790         1.002853
 C        -0.967075         0.424592         0.314066
 C        -2.185973         0.769039         1.086036
 C        -1.346410         1.883815         0.608878
 C        -2.107229         2.762703        -0.298284
 C        -2.478794         2.740737        -1.549520
 C        -1.986812         1.695885        -2.494612
 O        -2.023459         0.417581        -1.917051
 C        -0.975061        -0.012542        -1.144505
 H         0.876840         0.476082         0.671388
 H        -3.154830         0.682979         0.584247
 H        -2.160775         0.552154         2.208830
 H        -0.438084         2.204737         1.071505
 H        -2.645747         3.570973         0.159116
 H        -3.158068         3.431484        -2.039315
 H        -2.547214         1.637532        -3.512072
 H        -0.977846         1.945794        -2.809024
 H        -0.927683        -1.073662        -1.165775
 H        -0.083533         0.463208        -1.578929
