19
Iteration:  4722
 O         0.092072        -0.159505         1.062168
 C        -0.864650         0.558871         0.256120
 C        -2.195316         0.649079         1.052944
 C        -1.355547         2.009166         0.595559
 C        -2.181838         2.894707        -0.264969
 C        -2.475761         2.800927        -1.566304
 C        -2.005437         1.691257        -2.474002
 O        -2.053195         0.309397        -1.922461
 C        -0.857578        -0.032370        -1.181740
 H         0.938446         0.224375         0.948497
 H        -3.018333         0.681000         0.398285
 H        -2.367665         0.298308         2.042685
 H        -0.796443         2.353675         1.418901
 H        -2.696472         3.721447         0.402943
 H        -3.137104         3.454290        -1.994850
 H        -2.480898         1.751303        -3.394122
 H        -1.050006         1.874963        -2.761697
 H        -0.650498        -1.097398        -1.261100
 H         0.052741         0.393249        -1.820577
