19
Iteration:  1616
 O         0.181300        -0.022195         0.917797
 C        -0.952280         0.575101         0.340024
 C        -2.360385         0.522654         0.986604
 C        -1.441896         1.906013         0.674606
 C        -1.922868         2.967993        -0.286256
 C        -2.243568         2.791477        -1.579164
 C        -2.143240         1.542736        -2.566244
 O        -2.086936         0.346900        -1.829450
 C        -0.894680         0.092892        -1.071420
 H         1.008404         0.544809         1.001288
 H        -3.083564         0.153815         0.300867
 H        -2.391245         0.091002         1.981203
 H        -1.073871         2.260136         1.680819
 H        -2.303600         3.878031         0.230927
 H        -2.913377         3.485094        -2.142803
 H        -3.146792         1.476909        -3.221268
 H        -1.289283         1.716491        -3.327666
 H        -0.730126        -0.930016        -1.049805
 H         0.108028         0.262846        -1.619082
