19
Iteration:  3813
 O         0.289806         0.221045         0.900942
 C        -0.960930         0.433225         0.301042
 C        -2.234349         0.476970         1.145032
 C        -1.646908         1.780106         0.626941
 C        -2.156929         2.855406        -0.309002
 C        -2.230159         2.902449        -1.682005
 C        -1.866804         1.657022        -2.437847
 O        -2.120971         0.406303        -1.833946
 C        -1.062196        -0.182556        -1.109070
 H         0.857170         0.891801         0.336071
 H        -3.131946         0.196592         0.579091
 H        -2.297041         0.288127         2.233991
 H        -0.970219         2.278954         1.293003
 H        -2.288638         3.879729         0.284067
 H        -2.331648         3.873379        -2.188314
 H        -2.298307         1.774254        -3.464847
 H        -0.739396         1.705373        -2.546224
 H        -1.304822        -1.275502        -1.152430
 H        -0.117136         0.197403        -1.641221
