19
Iteration:  2058charge 0 multiplicity 1
 O         0.028117        -0.064667         1.192776
 C        -0.848791         0.539560         0.271922
 C        -2.167624         0.521983         0.930078
 C        -1.445368         1.856087         0.613590
 C        -1.965950         2.975289        -0.328819
 C        -2.249529         2.865597        -1.646918
 C        -2.344903         1.563668        -2.422941
 O        -2.045310         0.273791        -1.845581
 C        -0.793228         0.166298        -1.255672
 H         0.983187         0.306902         1.131541
 H        -3.019694         0.291007         0.360488
 H        -2.126314         0.355637         1.984020
 H        -1.110023         2.260880         1.596166
 H        -2.373988         3.889599         0.169671
 H        -2.769698         3.649029        -2.324930
 H        -3.292829         1.410216        -2.910296
 H        -1.566991         1.792771        -3.273243
 H        -0.609321        -0.946656        -1.295686
 H         0.130776         0.696499        -1.697375
