19
Iteration:   979charge 0 multiplicity 1
 O         0.234202         0.171942         0.983191
 C        -0.970876         0.485327         0.296363
 C        -2.359991         0.457328         0.925069
 C        -1.570465         1.785069         0.723747
 C        -1.931370         2.915274        -0.260618
 C        -2.054332         2.830399        -1.612968
 C        -2.269577         1.579653        -2.493767
 O        -2.109753         0.305524        -1.798188
 C        -0.869235         0.061212        -1.188618
 H         0.779788         0.907048         0.751509
 H        -3.214081         0.097265         0.361236
 H        -2.412988         0.257630         2.041653
 H        -1.116456         2.204406         1.624387
 H        -1.735918         3.823443         0.259016
 H        -2.175956         3.854463        -2.059593
 H        -3.307875         1.526141        -2.831221
 H        -1.610419         1.595370        -3.409813
 H        -0.663364        -0.982090        -1.396586
 H        -0.038179         0.621956        -1.742189
