19
Iteration:  2149charge 0 multiplicity 1
 O         0.037646         0.016960         1.170779
 C        -0.880308         0.519175         0.277673
 C        -2.216868         0.553099         0.966147
 C        -1.502296         1.818586         0.677346
 C        -1.938345         2.844938        -0.352102
 C        -2.114349         2.783907        -1.668104
 C        -2.389721         1.614434        -2.512403
 O        -2.052158         0.315713        -1.862607
 C        -0.759589         0.178379        -1.185632
 H         0.923848         0.451719         1.038936
 H        -3.078466         0.169202         0.409678
 H        -2.085974         0.123875         2.026019
 H        -1.099792         2.199646         1.615506
 H        -2.125652         3.875662        -0.023990
 H        -2.341881         3.691175        -2.106840
 H        -3.489982         1.788496        -2.381277
 H        -2.083222         1.714496        -3.651078
 H        -0.540986        -0.869102        -1.165720
 H        -0.041167         0.696385        -1.898171
