19
Iteration:  1907charge 0 multiplicity 1
 O         0.156788        -0.018440         0.956880
 C        -0.943308         0.581351         0.215103
 C        -2.080676         0.671652         1.181762
 C        -1.484052         1.976006         0.579017
 C        -2.298059         2.850263        -0.236374
 C        -2.382630         2.780967        -1.588824
 C        -1.771102         1.667220        -2.406962
 O        -2.104910         0.364893        -1.922998
 C        -1.045121        -0.149608        -1.188867
 H         0.945633        -0.192554         0.338411
 H        -2.973986         0.358500         0.707731
 H        -1.867964         0.503630         2.205317
 H        -0.911986         2.429478         1.418254
 H        -2.972166         3.580846         0.194979
 H        -2.627395         3.705492        -2.201081
 H        -2.354367         1.635893        -3.419514
 H        -0.645971         1.834093        -2.485357
 H        -1.148118        -1.212873        -1.078818
 H        -0.036199         0.201780        -1.656573
