19
Iteration:  1118charge 0 multiplicity 1
 O         0.214585         0.223879         0.799650
 C        -1.053484         0.519293         0.285787
 C        -2.185439         0.637772         1.179251
 C        -1.482438         1.879866         0.660349
 C        -2.102253         2.847080        -0.235810
 C        -2.358647         2.739151        -1.570372
 C        -1.720467         1.673932        -2.457954
 O        -2.043114         0.402538        -1.937124
 C        -1.194548        -0.182878        -1.049425
 H         0.853745        -0.004265         0.050734
 H        -3.170291         0.418057         0.684075
 H        -2.065787         0.075662         2.141725
 H        -0.641286         2.181582         1.280634
 H        -2.691065         3.593420         0.288366
 H        -3.240248         3.203149        -2.090165
 H        -2.180803         1.760458        -3.533037
 H        -0.639648         1.770369        -2.577313
 H        -1.498272        -1.227068        -0.992553
 H        -0.117015        -0.229524        -1.571243
