19
Iteration:  2268
 O         0.204437         0.087296         0.938994
 C        -1.064731         0.423391         0.324769
 C        -2.163081         0.630672         1.197022
 C        -1.449040         1.906620         0.564314
 C        -2.112515         2.850491        -0.283583
 C        -2.364676         2.723617        -1.602140
 C        -1.848704         1.712313        -2.529712
 O        -2.048603         0.361837        -1.945314
 C        -1.107393        -0.031553        -1.083453
 H         0.895719         0.285562         0.332615
 H        -3.220362         0.278981         0.811347
 H        -1.922358         0.545152         2.306180
 H        -0.824022         2.411085         1.364765
 H        -2.640132         3.627878         0.361116
 H        -3.052638         3.376530        -2.109715
 H        -2.349878         1.691294        -3.479353
 H        -0.776487         1.866251        -2.717468
 H        -1.055829        -1.095834        -1.169708
 H        -0.043181         0.161489        -1.423933
