19
Iteration:  3607charge 0 multiplicity 1
 O         0.120655         0.097186         1.081316
 C        -0.906779         0.536645         0.192218
 C        -2.222807         0.543585         0.963002
 C        -1.639726         1.827409         0.665416
 C        -1.975239         2.883630        -0.223936
 C        -2.124986         2.802432        -1.563276
 C        -2.177216         1.599882        -2.515739
 O        -2.119056         0.308233        -1.820060
 C        -0.872079         0.066429        -1.243171
 H         0.945254         0.677914         0.863141
 H        -2.986367        -0.028816         0.495028
 H        -2.083012         0.227799         2.018971
 H        -1.160260         2.179376         1.491623
 H        -1.949565         3.899902         0.220043
 H        -2.488161         3.718045        -1.931758
 H        -3.126283         1.587765        -3.044279
 H        -1.243612         1.690301        -3.206780
 H        -0.788451        -0.990101        -1.294975
 H         0.059886         0.350293        -1.856293
