19
Iteration:  4989
 O         0.176387         0.030430         1.034149
 C        -0.942595         0.543032         0.282348
 C        -2.184121         0.468180         1.015168
 C        -1.497568         1.881316         0.653513
 C        -2.128631         2.892115        -0.240075
 C        -2.341958         2.776358        -1.567925
 C        -2.029342         1.672958        -2.524596
 O        -2.025630         0.428375        -1.922175
 C        -0.952093        -0.039838        -1.124102
 H         0.909350         0.270964         0.518234
 H        -3.054798         0.268522         0.422517
 H        -2.269230         0.302640         2.038006
 H        -0.931834         2.275713         1.433059
 H        -2.504754         3.776726         0.319258
 H        -2.631177         3.701967        -2.235480
 H        -2.547884         1.623078        -3.445040
 H        -1.042806         1.831353        -2.904785
 H        -1.181219        -1.066318        -1.042575
 H        -0.057376         0.265581        -1.598252
