19
Iteration:   430charge 0 multiplicity 1
 O         0.068380        -0.124010         1.101399
 C        -0.787327         0.623477         0.223794
 C        -2.175082         0.622942         0.914726
 C        -1.400552         1.928308         0.642530
 C        -2.060398         2.843279        -0.295453
 C        -2.470423         2.719049        -1.521143
 C        -2.159441         1.635826        -2.503526
 O        -2.066527         0.347776        -1.879645
 C        -0.797768         0.063384        -1.198430
 H         0.447438         0.483290         1.694213
 H        -3.176726         0.573708         0.462869
 H        -2.086819         0.181597         1.930215
 H        -0.946166         2.384324         1.505536
 H        -2.296731         3.852008         0.116663
 H        -2.911637         3.606358        -1.896006
 H        -2.894847         1.613764        -3.350600
 H        -1.197088         1.943870        -3.129250
 H        -0.659429        -0.993393        -1.105966
 H         0.088979         0.450166        -1.702746
