19
Iteration:  4634
 O         0.232597         0.251458         0.867507
 C        -1.027676         0.559379         0.245443
 C        -2.172496         0.411349         1.132033
 C        -1.679741         1.780283         0.802546
 C        -2.139460         2.843311        -0.200335
 C        -2.062344         2.868956        -1.600022
 C        -1.843826         1.594903        -2.586109
 O        -2.142659         0.368750        -1.910151
 C        -1.120841        -0.083081        -1.148876
 H         0.844820         0.965841         0.524115
 H        -3.139703         0.174524         0.791635
 H        -1.795119         0.009341         2.017267
 H        -1.089166         2.321303         1.505018
 H        -2.514538         3.847607         0.349638
 H        -2.337379         3.772572        -2.154898
 H        -2.557675         1.607162        -3.411412
 H        -0.753970         1.606835        -3.054719
 H        -1.266879        -1.148369        -0.857828
 H        -0.093292         0.141279        -1.541127
