19
Iteration:   116
 O         0.226803         0.043673         0.858520
 C        -0.950107         0.597995         0.359729
 C        -2.262282         0.365908         1.015461
 C        -1.719783         1.811241         0.743437
 C        -1.828042         2.902819        -0.253971
 C        -2.199247         2.879596        -1.611713
 C        -2.351769         1.650760        -2.500375
 O        -1.963353         0.334644        -1.949252
 C        -0.788119         0.185122        -1.109383
 H        -0.045105        -0.426594         1.657868
 H        -3.098303        -0.169881         0.563853
 H        -2.126626        -0.029905         2.055905
 H        -1.520024         2.247645         1.695608
 H        -1.948595         3.865997         0.199768
 H        -2.476232         3.786486        -2.178953
 H        -3.369126         1.414325        -2.889010
 H        -1.708741         1.814707        -3.394486
 H        -0.674319        -0.949825        -1.161038
 H         0.141078         0.599757        -1.600683
