19
Iteration:   973
 O         0.294090         0.173886         1.015390
 C        -0.944855         0.398947         0.289087
 C        -2.358807         0.487613         0.935010
 C        -1.621055         1.752581         0.649202
 C        -1.869871         2.867880        -0.239216
 C        -2.023327         2.834543        -1.609246
 C        -2.284602         1.557470        -2.484325
 O        -2.168890         0.305484        -1.837889
 C        -0.862903         0.148673        -1.156703
 H         0.855829         1.023616         0.953904
 H        -3.222521         0.212684         0.325257
 H        -2.568322         0.470437         1.972957
 H        -1.240449         2.192094         1.602043
 H        -1.939819         3.888787         0.283562
 H        -2.271588         3.760186        -2.127984
 H        -3.339790         1.693478        -2.870338
 H        -1.705456         1.579494        -3.413937
 H        -0.643145        -0.947847        -1.302287
 H        -0.152146         0.795551        -1.641371
