19
Iteration:   444charge 0 multiplicity 1
 O         0.140162        -0.124677         1.127849
 C        -0.929953         0.473233         0.337369
 C        -2.195385         0.709944         0.965364
 C        -1.284517         1.913411         0.644875
 C        -2.021415         2.881132        -0.257058
 C        -2.455233         2.735668        -1.562348
 C        -2.211940         1.620361        -2.539425
 O        -1.974630         0.336182        -2.008922
 C        -0.847943         0.137266        -1.209402
 H         0.337259         0.475311         1.916881
 H        -2.998806         0.435646         0.288141
 H        -2.363317         0.431880         1.988753
 H        -0.910073         2.458926         1.570306
 H        -2.571755         3.609816         0.401854
 H        -3.256702         3.435106        -2.017145
 H        -3.272843         1.496416        -2.963702
 H        -1.391157         1.856334        -3.324369
 H        -0.667248        -0.960149        -1.302142
 H         0.000219         0.636924        -1.794141
