19
Iteration:  4862charge 0 multiplicity 1
 O         0.193746         0.161462         1.141116
 C        -0.944866         0.450938         0.308096
 C        -2.259261         0.328961         0.956136
 C        -1.609896         1.775904         0.675974
 C        -1.895712         2.902229        -0.292341
 C        -2.113354         2.824566        -1.619070
 C        -2.274675         1.637375        -2.589920
 O        -2.155225         0.415667        -1.842857
 C        -0.867228         0.081979        -1.190057
 H         0.966783         0.707780         1.005868
 H        -3.036830         0.003251         0.332018
 H        -2.304441         0.219945         1.970970
 H        -1.183127         2.163634         1.562253
 H        -1.668804         3.941435         0.107170
 H        -2.112986         3.790687        -2.008614
 H        -3.334574         1.635943        -2.945676
 H        -1.716938         1.634738        -3.483404
 H        -0.460089        -0.963809        -1.367243
 H        -0.005595         0.528331        -1.699797
