19
Iteration:  1725
 O         0.096594        -0.044914         1.005661
 C        -0.969178         0.622303         0.277736
 C        -2.273564         0.530765         0.861949
 C        -1.547222         1.933733         0.664278
 C        -1.911769         2.961877        -0.230915
 C        -2.053033         2.776123        -1.595152
 C        -2.399818         1.531358        -2.324502
 O        -2.015548         0.159308        -1.975659
 C        -0.733272         0.195046        -1.175632
 H         0.773071         0.537265         1.278347
 H        -3.060596         0.247241         0.194997
 H        -2.430582         0.481736         1.893245
 H        -1.251965         2.250392         1.703518
 H        -2.008271         3.953115         0.307055
 H        -2.295567         3.679333        -2.178898
 H        -3.435762         1.578270        -2.232059
 H        -2.209436         1.750956        -3.347140
 H        -0.523905        -0.824604        -0.959931
 H        -0.007779         0.808441        -1.655569
