19
Iteration:  1682
 O         0.015187        -0.016975         1.107117
 C        -0.920394         0.551519         0.333657
 C        -2.351592         0.640808         0.889900
 C        -1.380203         1.863824         0.674238
 C        -1.793930         2.834191        -0.299750
 C        -2.313042         2.696660        -1.555282
 C        -2.436628         1.584801        -2.438107
 O        -1.921550         0.270728        -1.953960
 C        -0.764863         0.235017        -1.160271
 H         0.829787         0.142792         0.676832
 H        -3.012953         0.322098         0.116624
 H        -2.344197         0.217192         1.852066
 H        -1.056272         2.333924         1.651819
 H        -1.645794         3.937700        -0.092113
 H        -2.677934         3.667513        -1.905183
 H        -3.525576         1.383015        -2.646169
 H        -1.985453         1.739703        -3.407839
 H        -0.442761        -0.761849        -1.171238
 H         0.077926         0.988479        -1.628402
