19
Iteration:  1410charge 0 multiplicity 1
 O         0.169518        -0.086057         1.055327
 C        -0.921011         0.514417         0.315839
 C        -2.138610         0.570883         1.049753
 C        -1.513950         1.912383         0.563481
 C        -2.135467         2.883314        -0.292283
 C        -2.203271         2.922884        -1.601849
 C        -2.082656         1.656855        -2.598710
 O        -2.168414         0.301016        -1.821899
 C        -0.897927         0.038116        -1.151780
 H         1.099761         0.358555         0.995011
 H        -3.143428         0.276678         0.746804
 H        -2.059333         0.269447         2.121538
 H        -1.032654         2.387448         1.427106
 H        -2.562801         3.769126         0.200321
 H        -2.667750         3.910643        -2.018043
 H        -2.876380         1.498136        -3.327518
 H        -1.101720         1.342104        -3.163713
 H        -0.583940        -1.045398        -1.220751
 H        -0.193584         0.722956        -1.682754
