19
Iteration:  3630charge 0 multiplicity 1
 O         0.229127         0.126631         1.147414
 C        -0.935514         0.504813         0.337741
 C        -2.326820         0.407889         0.886926
 C        -1.506694         1.829918         0.754112
 C        -1.801918         2.873286        -0.280241
 C        -2.185155         2.816460        -1.638818
 C        -2.326643         1.567766        -2.510437
 O        -2.113884         0.300859        -1.959014
 C        -0.930810         0.181527        -1.139145
 H         0.779173         0.817769         0.906236
 H        -3.076739         0.242352         0.103103
 H        -2.507763        -0.156868         1.814437
 H        -1.145833         2.174719         1.740774
 H        -1.878258         4.009777        -0.010124
 H        -2.028882         3.826210        -2.048009
 H        -3.358424         1.427542        -2.772397
 H        -1.581414         1.692396        -3.421738
 H        -0.650682        -0.838984        -1.319962
 H        -0.046972         0.700887        -1.697238
