19
Iteration:  2772
 O         0.217575         0.072328         1.060910
 C        -0.980941         0.543912         0.276874
 C        -2.206551         0.565838         1.193331
 C        -1.520671         1.862323         0.643174
 C        -2.122993         2.841507        -0.247595
 C        -2.183550         2.857050        -1.603266
 C        -2.047175         1.633664        -2.619328
 O        -2.087698         0.304219        -1.943287
 C        -0.982896        -0.032055        -1.171138
 H         1.009375         0.351857         0.555502
 H        -3.115758         0.291822         0.645576
 H        -2.136825         0.222693         2.246063
 H        -1.013293         2.350186         1.412847
 H        -2.630891         3.735473         0.177891
 H        -2.505151         3.876407        -2.040326
 H        -2.938867         1.598782        -3.287823
 H        -1.065716         1.907832        -3.234281
 H        -0.948299        -1.125688        -1.101822
 H        -0.010600         0.415732        -1.692869
