19
Iteration:  4127
 O        -0.031305        -0.077333         1.108892
 C        -1.025276         0.468074         0.280918
 C        -2.217275         0.743064         0.996195
 C        -1.325051         1.952170         0.651112
 C        -1.969454         2.865553        -0.296370
 C        -2.471374         2.738272        -1.487442
 C        -2.193029         1.570657        -2.423469
 O        -1.917568         0.256494        -1.999727
 C        -0.770955         0.152919        -1.218227
 H         0.892307         0.032262         0.627551
 H        -3.090477         0.765058         0.329415
 H        -2.293349         0.238548         1.979625
 H        -0.631951         2.429756         1.416428
 H        -2.230683         3.822496         0.296913
 H        -2.946160         3.654585        -2.140798
 H        -3.007332         1.208449        -3.082195
 H        -1.371677         1.890531        -3.176847
 H        -0.246949        -0.748921        -1.232751
 H        -0.042020         0.862197        -1.567716
