19
Iteration:  1151charge 0 multiplicity 1
 O         0.353035         0.177512         0.928001
 C        -0.916441         0.529132         0.278912
 C        -2.123272         0.508826         1.198276
 C        -1.675926         1.836942         0.629436
 C        -2.279750         2.887625        -0.339783
 C        -2.083567         2.976084        -1.689194
 C        -1.810387         1.678468        -2.361809
 O        -2.207075         0.345760        -1.919674
 C        -1.208776        -0.235643        -1.131236
 H         1.085543         0.444423         0.258332
 H        -3.061002        -0.114682         0.999338
 H        -1.829788         0.366551         2.270844
 H        -1.008296         2.426735         1.266034
 H        -2.900634         3.535813         0.267936
 H        -2.562334         3.829497        -2.302692
 H        -2.213534         1.811596        -3.459387
 H        -0.708951         1.550437        -2.392709
 H        -1.437583        -1.288257        -0.950113
 H        -0.339102        -0.184012        -1.883058
