19
Iteration:   585
 O         0.353004         0.147401         0.998617
 C        -0.893653         0.517008         0.353236
 C        -2.244804         0.483114         1.021006
 C        -1.618792         1.815107         0.723855
 C        -2.077811         2.841633        -0.236359
 C        -2.052773         2.843044        -1.647525
 C        -2.199361         1.601818        -2.583129
 O        -2.146382         0.366125        -1.923507
 C        -0.955569         0.094785        -1.179052
 H         0.106650        -0.477520         1.747168
 H        -3.121813         0.229587         0.421765
 H        -2.307714         0.242624         2.085784
 H        -1.230705         2.297221         1.685148
 H        -2.393694         3.815022         0.247198
 H        -2.228020         3.834676        -2.215887
 H        -3.176537         1.389950        -3.091955
 H        -1.419147         1.522793        -3.305576
 H        -0.777636        -0.984341        -1.360951
 H        -0.049606         0.483169        -1.618526
