19
Iteration:  1599
 O         0.277265         0.112642         0.960296
 C        -0.981366         0.488950         0.331631
 C        -2.249066         0.570404         0.978576
 C        -1.543574         1.875516         0.735651
 C        -1.954357         2.860171        -0.263282
 C        -2.242144         2.770403        -1.580576
 C        -2.070271         1.626494        -2.492161
 O        -2.123759         0.294825        -1.930804
 C        -1.028591        -0.014506        -1.139055
 H         0.829262         0.880909         0.697875
 H        -3.161888         0.486399         0.361770
 H        -2.545731         0.409932         2.011861
 H        -1.067536         2.296694         1.621319
 H        -2.019419         3.867790         0.116323
 H        -2.433102         3.724178        -2.014721
 H        -2.837158         1.736379        -3.204134
 H        -1.121741         1.684663        -2.997764
 H        -0.935381        -1.169290        -0.981201
 H        -0.145370         0.346379        -1.708118
