19
Iteration:   609
 O         0.154706         0.220132         0.862530
 C        -1.015562         0.564045         0.252068
 C        -2.293040         0.624165         1.053337
 C        -1.476641         1.841149         0.686981
 C        -2.038009         2.829827        -0.175527
 C        -2.219482         2.721141        -1.512026
 C        -1.988328         1.578016        -2.488694
 O        -2.120137         0.304295        -1.920802
 C        -0.868907         0.069056        -1.131401
 H         0.234848        -0.788661         0.859414
 H        -3.181257         0.399932         0.451370
 H        -2.186939         0.050904         1.957246
 H        -0.884377         2.245017         1.485896
 H        -2.313507         3.713289         0.291852
 H        -2.593600         3.600311        -2.064592
 H        -2.944136         1.473591        -3.123906
 H        -1.155692         1.613339        -3.136248
 H        -0.553165        -0.998018        -1.167339
 H         0.009103         0.502356        -1.615247
