19
Iteration:  2741charge 0 multiplicity 1
 O         0.224938         0.094627         0.914141
 C        -1.064587         0.508682         0.283427
 C        -2.217737         0.601958         1.238383
 C        -1.437478         1.868530         0.608781
 C        -2.090807         2.877991        -0.229283
 C        -2.446251         2.779716        -1.551517
 C        -1.836484         1.674252        -2.574775
 O        -2.039798         0.293414        -1.995962
 C        -1.077025        -0.083287        -1.109404
 H         0.794742         0.902177         0.819462
 H        -3.238081         0.492655         0.715311
 H        -2.077349         0.168922         2.296676
 H        -0.704626         2.312506         1.324051
 H        -2.242381         3.934215         0.198326
 H        -2.954474         3.687137        -2.094319
 H        -2.189329         1.612101        -3.576899
 H        -0.842881         1.867834        -2.509701
 H        -1.181207        -1.182435        -1.104164
 H        -0.101077         0.176530        -1.528615
