19
Iteration:  4475
 O         0.166553         0.021858         1.148906
 C        -0.894297         0.484933         0.309901
 C        -2.264481         0.463038         0.928833
 C        -1.562782         1.879246         0.681075
 C        -1.908682         2.918254        -0.284802
 C        -2.152732         2.777157        -1.622804
 C        -2.317156         1.652273        -2.516080
 O        -2.087288         0.276632        -1.947330
 C        -0.831928         0.173909        -1.168184
 H         0.858088         0.799893         1.126206
 H        -3.118035         0.264038         0.317747
 H        -2.383369         0.151693         1.945542
 H        -1.284043         2.240952         1.645393
 H        -1.901871         3.844896         0.039812
 H        -2.289031         3.681275        -2.159474
 H        -3.391972         1.529679        -2.608317
 H        -1.674457         1.731768        -3.437033
 H        -0.725655        -0.980731        -1.177135
 H         0.014517         0.688203        -1.627333
