19
Iteration:   159
 O         0.256909         0.257701         1.065984
 C        -0.863330         0.402226         0.176157
 C        -2.296487         0.478926         0.848441
 C        -1.610149         1.692974         0.681130
 C        -1.945483         2.738715        -0.205452
 C        -2.183364         2.831281        -1.589190
 C        -2.209828         1.647903        -2.529295
 O        -2.153010         0.459679        -1.670096
 C        -0.796672         0.110923        -1.305276
 H         0.052780        -0.430413         1.782317
 H        -3.171918         0.392315         0.188813
 H        -2.503336        -0.007071         1.833539
 H        -1.036218         2.102419         1.460819
 H        -2.237121         3.683608         0.202902
 H        -2.295278         3.852259        -1.989535
 H        -3.231679         1.612907        -3.013564
 H        -1.399996         1.593727        -3.176267
 H        -0.608329        -0.988213        -1.468206
 H        -0.174446         0.803898        -1.843799
