19
Iteration:  2007
 O         0.259422         0.077372         0.950845
 C        -0.981792         0.532230         0.357264
 C        -2.327981         0.549208         1.042735
 C        -1.520109         1.882495         0.660577
 C        -1.992586         2.846835        -0.284670
 C        -2.255347         2.759718        -1.584366
 C        -1.984725         1.604538        -2.500660
 O        -2.138917         0.318701        -1.896889
 C        -0.984675         0.042013        -1.119033
 H         0.973963         0.591736         0.473042
 H        -3.251184         0.379421         0.495400
 H        -2.224256         0.278289         2.074671
 H        -0.948135         2.342318         1.445455
 H        -2.254870         3.810402         0.089093
 H        -2.658244         3.611030        -2.040763
 H        -2.896440         1.600105        -3.244820
 H        -0.967717         1.719848        -3.075428
 H        -0.790382        -1.005301        -1.229324
 H        -0.160932         0.645075        -1.485120
