19
Iteration:  1150
 O         0.355834         0.181662         0.922998
 C        -0.926894         0.537233         0.285086
 C        -2.127467         0.508876         1.191301
 C        -1.667889         1.836945         0.633514
 C        -2.280381         2.884987        -0.338636
 C        -2.090758         2.969748        -1.684906
 C        -1.811670         1.684379        -2.362255
 O        -2.200148         0.341205        -1.917947
 C        -1.209767        -0.233514        -1.136418
 H         1.072621         0.405124         0.267464
 H        -3.067965        -0.106387         1.025487
 H        -1.850570         0.404154         2.283296
 H        -0.977709         2.372708         1.248781
 H        -2.868322         3.525860         0.252047
 H        -2.543629         3.829751        -2.324107
 H        -2.197014         1.823185        -3.454666
 H        -0.698434         1.553386        -2.364021
 H        -1.434815        -1.316835        -0.967690
 H        -0.365160        -0.192461        -1.876825
