19
Iteration:  4885charge 0 multiplicity 1
 O         0.113484         0.082914         1.034164
 C        -0.979128         0.536954         0.281335
 C        -2.266159         0.490039         0.964194
 C        -1.569888         1.835107         0.711456
 C        -1.958704         2.866364        -0.272054
 C        -2.086942         2.833231        -1.587149
 C        -2.239691         1.599239        -2.401195
 O        -2.029671         0.286909        -1.946648
 C        -0.889934         0.121552        -1.195004
 H         1.000234         0.446994         0.694195
 H        -3.189096         0.321824         0.401071
 H        -2.117723         0.107654         1.962983
 H        -1.061564         2.341406         1.547777
 H        -2.103143         3.834419         0.263657
 H        -2.435317         3.691856        -2.059236
 H        -3.231330         1.601871        -2.845830
 H        -1.595920         1.709308        -3.247071
 H        -0.529358        -0.909996        -1.144675
 H        -0.009006         0.464362        -1.766095
