19
Iteration:  2107
 O         0.124254        -0.028300         0.952090
 C        -1.007552         0.602268         0.355048
 C        -2.399200         0.611117         0.916483
 C        -1.510579         1.921391         0.719126
 C        -1.721025         2.906179        -0.280075
 C        -2.235433         2.761095        -1.506742
 C        -2.342874         1.499302        -2.466664
 O        -1.963116         0.135021        -1.987006
 C        -0.800126         0.241918        -1.121958
 H         0.756609         0.629610         1.128990
 H        -3.041636         0.369581         0.043266
 H        -2.638784         0.356364         2.022598
 H        -1.096915         2.414037         1.613310
 H        -1.598579         3.939905         0.096542
 H        -2.758723         3.587248        -1.935368
 H        -3.550169         1.370539        -2.588641
 H        -1.960897         1.740658        -3.430527
 H        -0.249840        -0.693548        -1.129382
 H        -0.046814         0.964115        -1.424693
