19
Iteration:   656
 O         0.188801        -0.023882         1.136775
 C        -0.894308         0.493835         0.293656
 C        -2.137564         0.694480         1.006113
 C        -1.342826         1.945368         0.546148
 C        -2.165071         2.892515        -0.233064
 C        -2.533397         2.765255        -1.502549
 C        -2.016042         1.715445        -2.544379
 O        -1.964392         0.376875        -2.044884
 C        -1.041940        -0.100609        -1.119021
 H         0.953411        -0.458561         0.647602
 H        -3.075453         0.534852         0.487154
 H        -2.188512         0.620161         2.104595
 H        -0.748499         2.291960         1.389025
 H        -2.671651         3.675034         0.389229
 H        -3.225914         3.478744        -1.898797
 H        -2.590932         1.593228        -3.451994
 H        -1.016746         2.026666        -2.746216
 H        -1.181903        -1.146741        -0.878360
 H        -0.081174        -0.213740        -1.653346
