19
Iteration:  2125
 O         0.149966        -0.068519         1.019530
 C        -0.968777         0.469320         0.301358
 C        -2.323984         0.600877         0.969198
 C        -1.559333         1.903291         0.755826
 C        -1.895504         3.008165        -0.325972
 C        -2.168174         2.813016        -1.632523
 C        -2.451188         1.488959        -2.381031
 O        -1.916036         0.236148        -1.974168
 C        -0.790911         0.178291        -1.154702
 H         0.718534         0.657363         1.146308
 H        -3.291112         0.475061         0.485291
 H        -2.304796         0.302715         1.988999
 H        -1.178591         2.312217         1.678054
 H        -1.791883         4.035424        -0.062279
 H        -2.016156         3.641638        -2.308750
 H        -3.481605         1.436228        -2.567698
 H        -1.860890         1.749344        -3.375823
 H        -0.409850        -0.825459        -1.212032
 H        -0.043709         0.896535        -1.660447
