19
Iteration:  3435charge 0 multiplicity 1
 O         0.182805         0.146383         0.917968
 C        -1.011159         0.448122         0.184260
 C        -2.138928         0.549191         1.262829
 C        -1.539049         1.810775         0.523398
 C        -2.279491         2.845348        -0.265794
 C        -2.231385         2.929032        -1.598015
 C        -1.792414         1.686542        -2.426828
 O        -2.085849         0.402867        -1.913442
 C        -1.065970        -0.175244        -1.149139
 H         0.929292         0.647789         0.565040
 H        -3.094830         0.141449         0.914437
 H        -1.838572         0.314532         2.260693
 H        -0.868865         2.249156         1.342106
 H        -2.486549         3.714953         0.348963
 H        -2.731318         3.734518        -2.022931
 H        -2.454950         1.773302        -3.309593
 H        -0.708081         1.698650        -2.728920
 H        -1.326768        -1.248267        -0.978340
 H        -0.090524        -0.015658        -1.614436
