19
Iteration:  3914charge 0 multiplicity 1
 O         0.057843        -0.060562         0.997013
 C        -0.976914         0.551124         0.169759
 C        -2.107767         0.721836         1.196050
 C        -1.314658         2.008574         0.668946
 C        -2.213746         2.822170        -0.220191
 C        -2.572594         2.742743        -1.565861
 C        -1.830427         1.722752        -2.512191
 O        -1.931715         0.376873        -2.088821
 C        -1.011454        -0.203678        -1.083675
 H         0.948546        -0.005210         0.561475
 H        -3.148748         0.854784         0.908368
 H        -1.946447         0.460528         2.223229
 H        -0.702063         2.681280         1.374638
 H        -2.979405         3.542493         0.365835
 H        -3.355292         3.460756        -1.909180
 H        -2.320238         1.918657        -3.484136
 H        -0.848806         2.032946        -2.564579
 H        -1.170500        -1.244353        -1.014677
 H         0.021291        -0.232200        -1.610073
