19
Iteration:  2691
 O         0.169904         0.046136         0.947182
 C        -0.935064         0.543688         0.238709
 C        -2.089271         0.643313         1.092100
 C        -1.401782         1.955822         0.622023
 C        -2.231472         2.813487        -0.281389
 C        -2.492286         2.743772        -1.625045
 C        -1.732071         1.708330        -2.370093
 O        -2.155546         0.415030        -1.965257
 C        -1.058570        -0.183481        -1.058596
 H         0.976572         0.401548         0.421787
 H        -3.046198         0.451304         0.560798
 H        -2.016753         0.407578         2.145617
 H        -0.660340         2.432691         1.362660
 H        -2.948271         3.508762         0.122233
 H        -3.042890         3.498942        -2.117483
 H        -2.051564         1.801040        -3.462530
 H        -0.535427         1.919473        -2.393915
 H        -1.386685        -1.235146        -0.814898
 H        -0.053192        -0.340566        -1.725177
