19
Iteration:  2491charge 0 multiplicity 1
 O         0.157518        -0.047000         1.005878
 C        -1.000778         0.521282         0.305109
 C        -2.337374         0.627104         0.927515
 C        -1.470840         1.898987         0.740254
 C        -1.943570         2.864561        -0.269466
 C        -2.195108         2.671464        -1.605993
 C        -2.354833         1.554354        -2.474931
 O        -1.944908         0.221535        -1.869089
 C        -0.828716         0.291591        -1.174842
 H         0.758480         0.684298         1.035710
 H        -3.208389         0.586768         0.304993
 H        -2.374137         0.455750         1.943422
 H        -0.989305         2.316232         1.618713
 H        -1.756368         3.888486        -0.076275
 H        -2.308067         3.582603        -2.210622
 H        -3.430581         1.410951        -2.731089
 H        -1.783399         1.706292        -3.391271
 H        -0.324308        -0.673385        -1.266785
 H        -0.223131         1.001622        -1.559426
