19
Iteration:  3708charge 0 multiplicity 1
 O         0.031643        -0.123784         1.247073
 C        -0.881678         0.534930         0.296806
 C        -2.260079         0.703265         0.787051
 C        -1.455720         1.870248         0.645735
 C        -1.852588         2.879721        -0.296604
 C        -2.340642         2.664243        -1.532503
 C        -2.417700         1.507475        -2.379192
 O        -1.926217         0.264443        -1.963804
 C        -0.783638         0.346548        -1.231092
 H         0.864284         0.233854         0.801816
 H        -3.115530         0.524170         0.114053
 H        -2.525350         0.363124         1.773160
 H        -1.013617         2.258125         1.705257
 H        -1.748997         3.942272         0.066837
 H        -2.593292         3.712838        -1.965997
 H        -3.394436         1.274896        -2.834272
 H        -1.814946         1.799246        -3.311868
 H        -0.186920        -0.590542        -1.303190
 H        -0.067467         1.060810        -1.827424
