19
Iteration:  4437charge 0 multiplicity 1
 O         0.230326         0.188726         1.037520
 C        -0.986414         0.477406         0.299900
 C        -2.320366         0.395709         0.867279
 C        -1.728183         1.750830         0.641427
 C        -1.881011         2.845188        -0.290194
 C        -2.053129         2.780212        -1.625339
 C        -2.178073         1.573495        -2.421220
 O        -2.181744         0.347056        -1.740844
 C        -0.820150         0.153604        -1.180995
 H         0.951677         0.632122         0.562088
 H        -3.266895         0.142211         0.307265
 H        -2.371442         0.334976         1.993552
 H        -1.462344         2.186622         1.635868
 H        -1.514245         3.972021         0.178469
 H        -2.069805         3.708768        -2.354356
 H        -3.166062         1.876108        -2.894740
 H        -1.605187         1.678798        -3.371659
 H        -0.375630        -0.769488        -1.282074
 H        -0.108589         0.860086        -1.776676
