19
Iteration:  4443charge 0 multiplicity 1
 O         0.227655         0.206916         1.080927
 C        -0.981340         0.485802         0.226955
 C        -2.350726         0.410162         0.851467
 C        -1.693370         1.745934         0.670327
 C        -1.813616         2.842150        -0.293241
 C        -2.086297         2.796822        -1.610378
 C        -2.214860         1.601999        -2.465003
 O        -2.181771         0.303075        -1.725778
 C        -0.801146         0.215934        -1.154090
 H         0.946989         0.621199         0.657782
 H        -3.224680         0.224097         0.288050
 H        -2.340821         0.156282         1.878784
 H        -1.445180         2.117017         1.628230
 H        -1.651938         3.688927         0.221078
 H        -2.020727         3.644138        -2.179668
 H        -3.150973         1.739789        -3.036968
 H        -1.611075         1.634036        -3.410291
 H        -0.548168        -0.966649        -1.340260
 H        -0.208572         0.714703        -1.864761
