19
Iteration:  1821charge 0 multiplicity 1
 O         0.151374        -0.022849         1.001742
 C        -0.946670         0.565703         0.224390
 C        -2.228441         0.610267         1.002968
 C        -1.507587         1.942718         0.647790
 C        -2.171910         2.865194        -0.254324
 C        -2.173512         2.776459        -1.558781
 C        -2.048357         1.576936        -2.383785
 O        -2.090645         0.309318        -1.915297
 C        -0.879004         0.039279        -1.184356
 H         0.925002         0.551544         0.757331
 H        -3.199491         0.342809         0.621146
 H        -2.092780         0.260646         1.980251
 H        -0.830058         2.426787         1.402619
 H        -2.234093         3.844060         0.225899
 H        -2.438748         3.740381        -2.083652
 H        -3.065654         1.633470        -2.927451
 H        -1.309695         1.679098        -3.225233
 H        -1.055735        -1.090818        -1.073699
 H        -0.021210         0.423903        -1.761920
