19
Iteration:   734charge 0 multiplicity 1
 O         0.238648         0.181000         0.734260
 C        -0.990756         0.585197         0.284907
 C        -2.206494         0.517396         1.151862
 C        -1.538371         1.877424         0.686798
 C        -2.108624         2.863106        -0.211064
 C        -2.207327         2.768235        -1.559509
 C        -1.900759         1.642996        -2.529396
 O        -2.040171         0.342654        -1.986109
 C        -1.129598        -0.146439        -1.012254
 H         0.743129         0.947742         1.187147
 H        -3.201649         0.372804         0.714022
 H        -2.045435         0.340640         2.193820
 H        -1.014506         2.266568         1.620294
 H        -2.437272         3.808354         0.414264
 H        -2.749995         3.560312        -2.139656
 H        -2.603373         1.701519        -3.334103
 H        -0.938830         1.681671        -3.104331
 H        -1.549927        -0.996009        -0.530466
 H        -0.204378        -0.435489        -1.518492
