19
Iteration:  4481charge 0 multiplicity 1
 O         0.180981        -0.025331         1.143519
 C        -0.902699         0.513350         0.317279
 C        -2.298165         0.536719         0.940947
 C        -1.564313         1.845303         0.658827
 C        -1.916377         2.896921        -0.295575
 C        -2.166687         2.830004        -1.591621
 C        -2.337721         1.618459        -2.523530
 O        -2.051874         0.256939        -1.959190
 C        -0.817357         0.165914        -1.178300
 H         0.821254         0.666819         1.205595
 H        -3.248872         0.246559         0.441919
 H        -2.147740         0.172872         1.989866
 H        -1.194500         2.304919         1.619626
 H        -2.132731         4.058223         0.069878
 H        -2.271696         3.862854        -2.096532
 H        -3.438857         1.521587        -2.771612
 H        -1.750205         1.768034        -3.430025
 H        -0.612642        -0.862927        -1.078365
 H         0.138178         0.584907        -1.612229
