19
Iteration:  4868charge 0 multiplicity 1
 O         0.151117         0.149350         1.129870
 C        -0.935779         0.489270         0.249528
 C        -2.268417         0.347940         0.996721
 C        -1.572203         1.792555         0.672472
 C        -1.885439         2.923953        -0.269255
 C        -2.119330         2.797675        -1.600158
 C        -2.269666         1.636385        -2.567208
 O        -2.140798         0.384838        -1.863782
 C        -0.818120         0.081753        -1.184718
 H         0.973850         0.716992         0.825423
 H        -3.075747        -0.081473         0.338970
 H        -2.420835         0.114432         2.125112
 H        -1.180939         2.070091         1.692143
 H        -1.950176         3.935193         0.077125
 H        -2.059121         3.823559        -2.162584
 H        -3.347246         1.629472        -2.884042
 H        -1.707741         1.672180        -3.605571
 H        -0.814289        -1.004098        -1.356313
 H         0.028908         0.661932        -1.644753
