19
Iteration:  1095charge 0 multiplicity 1
 O         0.204419         0.016310         0.923298
 C        -0.918470         0.564636         0.331471
 C        -2.158327         0.742696         1.166726
 C        -1.390563         1.993999         0.589590
 C        -2.233511         2.828822        -0.163092
 C        -2.439662         2.723426        -1.520714
 C        -1.793089         1.690185        -2.447257
 O        -2.065955         0.303901        -2.137032
 C        -1.123905        -0.166618        -1.115973
 H         0.956153         0.142124         0.372365
 H        -3.150329         0.626419         0.728100
 H        -2.068804         0.566406         2.292515
 H        -0.974571         2.498201         1.423751
 H        -2.671798         3.633891         0.360102
 H        -3.007306         3.500704        -2.078052
 H        -2.164253         1.946074        -3.495898
 H        -0.694157         1.797880        -2.480405
 H        -1.429542        -1.206901        -0.877266
 H        -0.135781        -0.235551        -1.698126
