19
Iteration:  2291charge 0 multiplicity 1
 O         0.247615        -0.007417         0.911074
 C        -0.882339         0.570010         0.216991
 C        -2.196865         0.712039         1.127698
 C        -1.522901         1.962284         0.641747
 C        -2.273921         2.845148        -0.263679
 C        -2.422077         2.832880        -1.607886
 C        -1.793882         1.672394        -2.436423
 O        -2.112253         0.356052        -1.893564
 C        -1.014965        -0.219267        -1.092443
 H         1.024490        -0.019057         0.264616
 H        -3.181255         0.623609         0.460179
 H        -2.225302         0.367593         2.202177
 H        -0.881082         2.617883         1.315985
 H        -2.907681         3.592714         0.386047
 H        -2.682491         3.770030        -2.134797
 H        -2.046418         1.655427        -3.479939
 H        -0.702628         1.796759        -2.453260
 H        -1.066858        -1.282025        -0.956626
 H        -0.033011        -0.285109        -1.692358
