19
Iteration:   448
 O         0.161756        -0.113465         1.117382
 C        -0.962176         0.419650         0.376495
 C        -2.203492         0.725493         0.984084
 C        -1.279861         1.905285         0.642776
 C        -2.030862         2.894586        -0.259956
 C        -2.433000         2.771729        -1.542289
 C        -2.251873         1.597268        -2.566119
 O        -1.942902         0.319686        -2.028720
 C        -0.847305         0.158704        -1.221016
 H         0.296107         0.423266         1.871694
 H        -3.035964         0.541802         0.298349
 H        -2.519033         0.462689         2.005444
 H        -0.850043         2.462839         1.467529
 H        -2.528907         3.582743         0.376774
 H        -3.263746         3.360988        -1.907676
 H        -3.220747         1.571423        -3.031254
 H        -1.539655         1.838009        -3.298660
 H        -0.580507        -0.939410        -1.260009
 H         0.042644         0.635498        -1.689642
