19
Iteration:   690
 O         0.150580        -0.047603         0.952725
 C        -0.968156         0.450131         0.208429
 C        -2.120989         0.734671         1.201090
 C        -1.374096         1.891200         0.546731
 C        -2.206810         2.821474        -0.257820
 C        -2.447140         2.767781        -1.593883
 C        -1.860717         1.692151        -2.482735
 O        -2.097283         0.373374        -1.931516
 C        -0.999419        -0.046591        -1.143701
 H         0.826604         0.670423         1.217032
 H        -3.136227         0.546628         0.835913
 H        -1.876476         0.584203         2.260860
 H        -0.635324         2.435810         1.198976
 H        -2.901390         3.512420         0.373820
 H        -3.142749         3.535438        -1.966931
 H        -2.124435         1.591708        -3.499073
 H        -0.814344         1.874012        -2.553802
 H        -1.067510        -1.114503        -1.134365
 H        -0.072330         0.335218        -1.593473
