19
Iteration:  4582
 O         0.158515         0.024865         1.026112
 C        -0.970830         0.469729         0.298978
 C        -2.222535         0.580819         1.020434
 C        -1.469176         1.875592         0.614952
 C        -2.100379         2.848091        -0.327460
 C        -2.400140         2.848753        -1.606179
 C        -2.033793         1.775558        -2.459329
 O        -2.035408         0.374383        -1.891467
 C        -0.841544        -0.151054        -1.122246
 H         0.957103         0.598807         0.668658
 H        -3.092355         0.270271         0.499285
 H        -2.136595         0.340066         2.041092
 H        -0.943083         2.379437         1.396650
 H        -2.507767         3.765205         0.182948
 H        -2.923155         3.643085        -2.043250
 H        -2.725175         1.719551        -3.311040
 H        -1.157654         2.025828        -2.967448
 H        -0.993083        -1.152918        -0.991784
 H         0.197191        -0.029651        -1.434140
