19
Iteration:  3931
 O         0.081350        -0.097647         1.113978
 C        -0.912832         0.534009         0.287596
 C        -2.123084         0.769978         1.081867
 C        -1.339578         1.984926         0.561171
 C        -2.210878         2.853324        -0.219630
 C        -2.483713         2.654923        -1.500369
 C        -1.875432         1.746687        -2.484248
 O        -2.003841         0.364831        -2.086811
 C        -1.021459        -0.040094        -1.193239
 H         1.017576         0.046100         0.644965
 H        -3.032447         0.401838         0.569354
 H        -1.982698         0.484603         2.159765
 H        -0.710683         2.407319         1.277024
 H        -2.767906         3.630122         0.344341
 H        -3.436958         3.110968        -1.910995
 H        -2.469415         1.687895        -3.412552
 H        -0.721468         2.088105        -2.735739
 H        -1.287033        -1.171292        -0.912729
 H        -0.060833        -0.083358        -1.634842
