19
Iteration:  3074charge 0 multiplicity 1
 O         0.218021        -0.039977         0.899193
 C        -0.916652         0.492712         0.355328
 C        -2.157350         0.652293         1.242731
 C        -1.419152         1.899110         0.589483
 C        -2.233841         2.767546        -0.361755
 C        -2.458166         2.772024        -1.651943
 C        -1.769649         1.815760        -2.483544
 O        -2.094657         0.413627        -1.942057
 C        -1.077575        -0.073122        -1.075009
 H         1.074232         0.092883         0.392777
 H        -3.088913         0.266960         0.758605
 H        -2.219195         0.522762         2.394786
 H        -0.830461         2.445093         1.285238
 H        -2.702757         3.724763         0.161040
 H        -3.332982         3.447892        -1.999016
 H        -2.083628         1.932769        -3.613166
 H        -0.659919         1.923584        -2.359096
 H        -1.444094        -1.133416        -0.818947
 H        -0.112593        -0.196718        -1.680837
