19
Iteration:  3609charge 0 multiplicity 1
 O         0.119568         0.107520         1.086454
 C        -0.906388         0.543509         0.203979
 C        -2.216632         0.532287         0.952681
 C        -1.640376         1.830821         0.660464
 C        -1.961100         2.862016        -0.218184
 C        -2.116354         2.780323        -1.571832
 C        -2.200730         1.607328        -2.517759
 O        -2.125456         0.304712        -1.827766
 C        -0.869461         0.077067        -1.239643
 H         0.945076         0.682600         0.892672
 H        -3.006664        -0.023286         0.457443
 H        -2.154023         0.254101         2.013344
 H        -1.124316         2.224926         1.582472
 H        -1.863384         3.916702         0.272902
 H        -2.517424         3.742553        -1.976278
 H        -3.108785         1.659032        -3.040093
 H        -1.271139         1.750290        -3.209173
 H        -0.756330        -1.008972        -1.307709
 H         0.062389         0.324102        -1.832823
