19
Iteration:  4191charge 0 multiplicity 1
 O         0.250155         0.115397         0.980535
 C        -0.972353         0.473964         0.286770
 C        -2.256951         0.578138         1.125925
 C        -1.535076         1.819090         0.600709
 C        -2.128686         2.888391        -0.308590
 C        -2.329445         2.866516        -1.576759
 C        -1.878098         1.643642        -2.511925
 O        -2.121256         0.347480        -1.866531
 C        -0.973404        -0.125728        -1.139357
 H         0.861112         0.794859         0.565200
 H        -3.156386         0.315286         0.538771
 H        -2.256649         0.292162         2.198413
 H        -0.894473         2.334376         1.404613
 H        -2.430505         3.813849         0.279923
 H        -2.641193         3.789233        -2.156484
 H        -2.630291         1.719277        -3.336893
 H        -0.793277         1.737915        -2.904179
 H        -1.020673        -1.211997        -1.168381
 H        -0.029775         0.197722        -1.739041
