19
Iteration:   185
 O         0.239927         0.096802         0.996065
 C        -0.959600         0.475468         0.291516
 C        -2.243401         0.402397         1.035508
 C        -1.542797         1.849119         0.650606
 C        -2.046685         2.935132        -0.240209
 C        -2.237609         2.870524        -1.577888
 C        -2.187188         1.653184        -2.510029
 O        -2.061936         0.337358        -1.937492
 C        -0.858356         0.135110        -1.120708
 H         0.408082        -0.874354         0.749781
 H        -3.148202         0.075791         0.536603
 H        -2.138877        -0.043382         2.015411
 H        -1.124252         2.226086         1.619045
 H        -2.281918         3.905253         0.202710
 H        -2.535596         3.741166        -2.187952
 H        -3.044512         1.609444        -3.174748
 H        -1.245438         1.777295        -3.080334
 H        -0.699792        -0.974214        -1.167624
 H         0.058467         0.687239        -1.570975
