19
Iteration:  1215
 O         0.235782         0.051387         0.972767
 C        -0.991059         0.469616         0.299128
 C        -2.235290         0.630207         1.089451
 C        -1.414962         1.930167         0.567645
 C        -2.082782         2.962211        -0.187048
 C        -2.307232         2.768048        -1.510231
 C        -1.986540         1.601897        -2.489753
 O        -2.098653         0.258513        -2.013007
 C        -1.059701        -0.053802        -1.125646
 H         0.885945         0.838062         1.022770
 H        -3.112917         0.214392         0.499464
 H        -2.320859         0.577842         2.194317
 H        -0.813924         2.329205         1.344215
 H        -2.402528         3.910246         0.122143
 H        -2.721025         3.673164        -2.125467
 H        -2.656427         1.527942        -3.377943
 H        -0.967879         1.917589        -2.813605
 H        -0.800976        -1.145666        -1.239735
 H        -0.169844         0.409975        -1.483124
