19
Iteration:  2321charge 0 multiplicity 1
 O         0.205931         0.098584         0.967066
 C        -0.899578         0.578330         0.212354
 C        -2.138305         0.572818         1.085602
 C        -1.494604         1.900565         0.545534
 C        -2.157237         2.951061        -0.257805
 C        -2.448520         2.782746        -1.581095
 C        -1.748216         1.653038        -2.368432
 O        -2.149978         0.388483        -1.952968
 C        -1.081682        -0.228741        -1.108237
 H         1.064656         0.386291         0.744199
 H        -3.137374         0.313211         0.548605
 H        -2.091569         0.427192         2.188696
 H        -0.912673         2.456816         1.335855
 H        -2.671180         3.650865         0.437502
 H        -3.219952         3.297125        -2.122818
 H        -2.013429         1.842329        -3.435044
 H        -0.613616         1.834362        -2.414171
 H        -1.319580        -1.302513        -0.916284
 H        -0.181083        -0.291101        -1.708207
