19
Iteration:   544charge 0 multiplicity 1
 O         0.229179         0.180227         0.995868
 C        -0.965769         0.443486         0.301841
 C        -2.319387         0.362516         0.894586
 C        -1.564239         1.726310         0.599884
 C        -1.790707         2.908261        -0.355007
 C        -2.266124         2.887199        -1.663438
 C        -2.246431         1.521014        -2.497311
 O        -2.104869         0.427094        -1.662159
 C        -0.803156         0.167582        -1.129806
 H         0.108469         0.095997         1.900626
 H        -3.114038        -0.029289         0.268038
 H        -2.374451        -0.035766         1.909572
 H        -1.271718         2.234228         1.533174
 H        -1.844315         3.844402         0.135937
 H        -2.397849         3.921296        -2.076675
 H        -3.306686         1.492293        -2.996467
 H        -1.549457         1.666770        -3.428442
 H        -0.561999        -0.894452        -1.418872
 H        -0.015705         0.715425        -1.747450
