19
Iteration:  2790charge 0 multiplicity 1
 O         0.171521         0.039021         1.056099
 C        -0.863215         0.513275         0.326805
 C        -2.174102         0.530806         0.949124
 C        -1.566013         1.883021         0.716927
 C        -2.195919         2.891505        -0.302564
 C        -2.142263         2.828986        -1.635514
 C        -2.118245         1.595609        -2.491751
 O        -2.119989         0.343327        -1.886015
 C        -0.881353         0.052030        -1.116165
 H         0.979454         0.112359         0.522322
 H        -3.049277         0.347292         0.441690
 H        -2.148049         0.201552         1.948013
 H        -1.001720         2.392922         1.535512
 H        -2.240248         3.900924         0.063425
 H        -2.376650         3.543071        -2.337717
 H        -3.130247         1.727810        -2.969942
 H        -1.322855         1.663491        -3.249521
 H        -1.006348        -1.026058        -1.140274
 H        -0.051786         0.395642        -1.665317
