19
Iteration:  2098
 O         0.097089         0.005489         0.990311
 C        -0.946704         0.593073         0.324043
 C        -2.390031         0.623369         0.866929
 C        -1.456552         1.888540         0.745091
 C        -1.714413         2.880676        -0.284513
 C        -2.223618         2.683714        -1.511323
 C        -2.403425         1.429866        -2.425547
 O        -1.946045         0.238497        -1.964290
 C        -0.819394         0.253898        -1.165119
 H         0.758125         0.632133         1.179747
 H        -3.219361         0.562274         0.148262
 H        -2.833954         0.462786         1.915779
 H        -1.099384         2.296723         1.734739
 H        -1.833848         3.942257         0.073367
 H        -2.771908         3.618714        -1.876505
 H        -3.443533         1.405652        -2.899528
 H        -1.694249         1.708108        -3.170041
 H        -0.407082        -0.816670        -1.186412
 H        -0.226897         0.953329        -1.708216
