19
Iteration:  1712
 O         0.133802        -0.097638         1.000168
 C        -0.921451         0.511969         0.296638
 C        -2.357325         0.658420         0.876955
 C        -1.612637         1.973324         0.774538
 C        -1.898975         3.061192        -0.256013
 C        -2.136072         2.829178        -1.551736
 C        -2.418903         1.531512        -2.322608
 O        -1.914571         0.132311        -1.976786
 C        -0.770092         0.119808        -1.219808
 H         0.863677         0.619441         0.969033
 H        -3.106682         0.338364         0.175381
 H        -2.387581         0.108399         1.803065
 H        -1.297763         2.401192         1.758073
 H        -1.759380         4.144399        -0.075393
 H        -2.392029         3.729325        -2.230412
 H        -3.443825         1.353060        -2.318350
 H        -2.125542         1.626506        -3.377367
 H        -0.264305        -0.897381        -1.384580
 H        -0.018740         0.705175        -1.643143
