19
Iteration:  3449
 O         0.229139         0.094418         0.943691
 C        -0.999033         0.480716         0.292767
 C        -2.079840         0.542804         1.181095
 C        -1.545406         1.887419         0.598302
 C        -2.325108         2.892274        -0.219496
 C        -2.240739         2.787775        -1.597892
 C        -1.763520         1.750310        -2.448008
 O        -2.123199         0.441416        -1.947330
 C        -1.110661        -0.210774        -1.138510
 H         0.960065         0.432044         0.384365
 H        -3.123608         0.372219         1.009580
 H        -1.795460         0.260692         2.213240
 H        -0.685943         2.522424         1.037021
 H        -3.151670         3.488268         0.163639
 H        -2.561553         3.649293        -2.284479
 H        -2.180381         1.788510        -3.576894
 H        -0.668876         1.896073        -2.749895
 H        -1.393134        -1.302484        -1.223946
 H        -0.142774        -0.321683        -1.705036
