19
Iteration:     5charge 0 multiplicity 1
 O         0.229576         0.101346         0.990933
 C        -0.945117         0.485517         0.281018
 C        -2.276157         0.499473         0.946658
 C        -1.513936         1.782471         0.678400
 C        -2.049506         2.908337        -0.229063
 C        -2.290713         2.809237        -1.517334
 C        -2.137232         1.666530        -2.474956
 O        -2.036418         0.379620        -1.908300
 C        -0.837430         0.103900        -1.205180
 H         0.171911        -0.879263         1.054191
 H        -3.071017         0.072147         0.292753
 H        -2.288194         0.173615         1.985630
 H        -0.979733         2.235053         1.526831
 H        -2.476538         3.794610         0.295742
 H        -2.891794         3.708306        -1.879997
 H        -3.032286         1.635234        -3.155854
 H        -1.254017         1.892849        -3.176314
 H        -0.606686        -0.989641        -1.203719
 H         0.131170         0.524599        -1.592355
