19
Iteration:  4941charge 0 multiplicity 1
 O         0.000380        -0.089470         1.097930
 C        -0.897413         0.439620         0.260351
 C        -2.190689         0.693124         1.005129
 C        -1.317546         1.884259         0.583518
 C        -2.044589         2.898244        -0.217976
 C        -2.515638         2.714425        -1.501939
 C        -2.111831         1.690946        -2.587404
 O        -2.007070         0.352009        -1.930224
 C        -0.785900         0.064933        -1.162537
 H         0.837200         0.469710         1.021109
 H        -3.142764         0.423705         0.465928
 H        -2.211769         0.330683         2.103127
 H        -0.831360         2.419155         1.493177
 H        -2.288420         3.822362         0.281216
 H        -2.987360         3.545344        -1.912830
 H        -2.787530         1.530275        -3.403937
 H        -1.171753         1.904351        -3.171321
 H        -0.706531        -1.011722        -1.205712
 H        -0.056828         0.650683        -1.677839
