19
Iteration:  4922charge 0 multiplicity 1
 O         0.112853        -0.146546         1.007888
 C        -0.932534         0.577356         0.266746
 C        -2.295042         0.639970         0.976923
 C        -1.422949         1.964487         0.737953
 C        -1.940392         2.893185        -0.290625
 C        -2.408938         2.730061        -1.530669
 C        -2.142395         1.592530        -2.436999
 O        -1.979692         0.274494        -1.998727
 C        -0.856810         0.160353        -1.162093
 H         0.998725         0.377208         0.884838
 H        -3.238249         0.549778         0.365859
 H        -2.468433         0.235774         2.061908
 H        -0.958057         2.416066         1.651974
 H        -2.314715         3.828403         0.092157
 H        -3.114296         3.563386        -1.900181
 H        -2.891342         1.547796        -3.197425
 H        -1.222524         1.849790        -2.918286
 H        -0.771648        -0.915329        -1.111852
 H         0.027621         0.713871        -1.589293
