19
Iteration:  3330
 O         0.068129        -0.143727         1.195464
 C        -0.863155         0.550967         0.377319
 C        -2.305538         0.604241         0.877556
 C        -1.412203         1.853197         0.657680
 C        -1.851117         2.774762        -0.373474
 C        -2.378657         2.734324        -1.625202
 C        -2.400876         1.617678        -2.439026
 O        -1.968312         0.351961        -1.923261
 C        -0.759076         0.312095        -1.177522
 H         1.048680         0.166443         1.055741
 H        -3.146725         0.411627         0.148281
 H        -2.485736         0.203271         1.853516
 H        -0.966336         2.328168         1.642273
 H        -1.725444         3.831377        -0.049082
 H        -2.647277         3.742330        -2.076142
 H        -3.486366         1.354884        -2.745859
 H        -1.759239         1.838916        -3.319533
 H        -0.422870        -0.729031        -1.441949
 H        -0.171191         1.063193        -1.758186
