19
Iteration:  3824charge 0 multiplicity 1
 O         0.330924         0.227423         0.902039
 C        -0.965474         0.411540         0.299176
 C        -2.235608         0.496629         1.142319
 C        -1.628972         1.776590         0.634501
 C        -2.236665         2.907686        -0.340253
 C        -2.177736         2.962956        -1.641486
 C        -1.786739         1.688380        -2.423387
 O        -2.190450         0.401745        -1.886342
 C        -1.059279        -0.212187        -1.092610
 H         1.058856         0.799188         0.490348
 H        -3.136550         0.120963         0.641754
 H        -2.050308         0.173263         2.188349
 H        -1.145383         2.198714         1.511606
 H        -2.613052         3.907598         0.266151
 H        -2.621630         3.760956        -2.284921
 H        -2.371506         1.538235        -3.367705
 H        -0.713683         1.728007        -2.746304
 H        -1.289326        -1.326780        -0.959602
 H        -0.097139        -0.417460        -1.706583
