19
Iteration:  4663
 O         0.327632         0.244139         0.926846
 C        -1.019492         0.449181         0.322723
 C        -2.232750         0.517152         1.150013
 C        -1.658405         1.745516         0.634449
 C        -2.117389         2.853295        -0.239024
 C        -2.161182         2.899699        -1.556556
 C        -1.913478         1.704135        -2.496654
 O        -2.074391         0.320409        -2.033825
 C        -1.102629        -0.154599        -1.081571
 H         0.919979         0.762905         0.229681
 H        -3.215180         0.102118         0.763817
 H        -2.048285         0.411449         2.256291
 H        -1.168635         2.351240         1.463872
 H        -2.403770         3.686051         0.370793
 H        -2.317129         3.901130        -2.136127
 H        -2.749571         1.716732        -3.242070
 H        -0.908332         1.882690        -2.812206
 H        -1.384226        -1.315020        -1.218142
 H        -0.125975         0.214270        -1.543943
