19
Iteration:  3838
 O         0.310593         0.186381         0.932865
 C        -0.937201         0.544197         0.249279
 C        -2.152451         0.454866         1.105676
 C        -1.628882         1.877327         0.567567
 C        -2.257126         2.877618        -0.250597
 C        -2.152676         2.866643        -1.589173
 C        -1.744225         1.711018        -2.485298
 O        -2.134317         0.375515        -1.890385
 C        -1.201472        -0.247344        -1.076349
 H         0.941365         0.807513         0.468446
 H        -3.043582        -0.026658         0.690072
 H        -2.026869         0.423752         2.184805
 H        -1.080426         2.390246         1.473617
 H        -2.962024         3.626401         0.278472
 H        -2.743063         3.683173        -2.124027
 H        -2.368823         1.943436        -3.430051
 H        -0.596330         1.611080        -2.747357
 H        -1.626123        -1.225177        -0.893332
 H        -0.238046        -0.311594        -1.611627
