19
Iteration:  1288charge 0 multiplicity 1
 O         0.054771        -0.155964         1.175383
 C        -0.915350         0.432909         0.339772
 C        -2.243862         0.673518         0.934528
 C        -1.439622         1.861408         0.648636
 C        -1.813536         2.968670        -0.351165
 C        -2.397956         2.862709        -1.549417
 C        -2.419821         1.514220        -2.559541
 O        -1.997281         0.252335        -1.848685
 C        -0.713114         0.261381        -1.214074
 H         0.841676         0.237840         0.782694
 H        -3.122007         0.363271         0.313065
 H        -2.412734         0.387220         1.971947
 H        -1.162878         2.381576         1.523246
 H        -1.736314         3.940177         0.077054
 H        -2.714317         3.706063        -2.187504
 H        -3.355726         1.247560        -2.994037
 H        -1.649104         1.612790        -3.379888
 H        -0.013068        -0.560703        -1.532958
 H        -0.092201         1.151084        -1.550527
