19
Iteration:   383
 O         0.360957         0.217690         0.981454
 C        -0.953919         0.484325         0.353307
 C        -2.327205         0.531971         1.048934
 C        -1.592084         1.759522         0.658529
 C        -2.119463         2.826599        -0.206585
 C        -2.179027         2.888169        -1.595340
 C        -2.043209         1.664289        -2.542446
 O        -2.091598         0.321899        -1.950692
 C        -0.986136        -0.010853        -1.111390
 H         0.903707        -0.008517         0.218950
 H        -3.078051         0.123219         0.339930
 H        -2.517019         0.338606         2.116905
 H        -1.035037         2.126102         1.548445
 H        -2.275404         3.748737         0.349022
 H        -2.647560         3.811610        -2.015270
 H        -2.819376         1.578197        -3.306158
 H        -1.114610         1.822925        -3.191341
 H        -1.109902        -1.111137        -1.048732
 H        -0.014745         0.135157        -1.536539
