19
Iteration:  3779charge 0 multiplicity 1
 O         0.214241         0.055135         1.045085
 C        -0.962947         0.548310         0.290639
 C        -2.212930         0.536818         1.070978
 C        -1.550611         1.915285         0.795625
 C        -2.054254         2.849303        -0.275771
 C        -2.216961         2.823921        -1.633843
 C        -2.048583         1.630281        -2.557545
 O        -2.097732         0.301433        -1.945203
 C        -0.983302         0.032709        -1.203817
 H         1.057959         0.562653         0.791733
 H        -3.152651         0.440462         0.503613
 H        -2.280182         0.063349         2.043638
 H        -0.993443         2.397242         1.500199
 H        -2.545198         3.713394         0.215047
 H        -2.804278         3.579312        -2.049447
 H        -2.754111         1.598412        -3.383146
 H        -1.030485         1.585956        -3.072300
 H        -0.832757        -1.086870        -1.099869
 H         0.010325         0.321059        -1.656451
