19
Iteration:  3158charge 0 multiplicity 1
 O         0.239825         0.062407         0.988295
 C        -0.941878         0.535842         0.292714
 C        -2.257933         0.527655         1.091405
 C        -1.502242         1.894994         0.700174
 C        -2.011547         2.949478        -0.231231
 C        -2.361007         2.796514        -1.528175
 C        -1.950910         1.710542        -2.607197
 O        -2.096920         0.306621        -2.027366
 C        -1.014681        -0.107565        -1.086989
 H         0.954523         0.404062         0.497354
 H        -3.159890         0.155293         0.671044
 H        -2.080226         0.479219         2.174196
 H        -1.122710         2.355035         1.660175
 H        -2.425880         3.859526         0.173027
 H        -2.999264         3.707401        -1.867381
 H        -2.758619         1.656321        -3.424188
 H        -0.897793         1.746519        -3.012432
 H        -1.155031        -1.173586        -0.986779
 H         0.027485         0.134954        -1.607461
