19
Iteration:  2997charge 0 multiplicity 1
 O         0.278867         0.103736         0.895115
 C        -0.953148         0.544277         0.362402
 C        -2.307413         0.524028         1.080787
 C        -1.549757         1.864405         0.731855
 C        -2.006696         2.854908        -0.272886
 C        -2.232257         2.759527        -1.612896
 C        -2.021607         1.594405        -2.564449
 O        -2.132389         0.380822        -1.903528
 C        -0.975073        -0.038849        -1.116497
 H         0.867927         0.832134         0.826236
 H        -3.074522         0.339421         0.317044
 H        -2.609682         0.241688         2.083844
 H        -1.049869         2.275234         1.591146
 H        -2.125880         3.897081         0.164728
 H        -2.720433         3.699309        -1.959736
 H        -2.748592         1.664462        -3.301591
 H        -0.976157         1.674147        -2.938138
 H        -0.955749        -1.150418        -1.019948
 H        -0.212597         0.457769        -1.705936
