19
Iteration:  1487
 O         0.064250         0.072942         1.006299
 C        -0.963393         0.518852         0.153677
 C        -2.105292         0.767785         1.132807
 C        -1.377378         1.947241         0.565450
 C        -2.226138         2.855121        -0.157820
 C        -2.443172         2.696480        -1.480323
 C        -1.822135         1.703497        -2.411490
 O        -2.051453         0.347420        -2.047058
 C        -1.026612        -0.223408        -1.186726
 H         0.895598         0.272649         0.573596
 H        -3.124364         0.535939         0.869553
 H        -1.735825         0.412152         2.048276
 H        -0.629572         2.294071         1.335155
 H        -2.497437         3.799985         0.343531
 H        -2.870053         3.487514        -2.147500
 H        -2.241472         1.775203        -3.421301
 H        -0.735262         1.856347        -2.541183
 H        -1.450900        -1.219133        -0.839515
 H        -0.069406        -0.205660        -1.736014
