19
Iteration:  2546charge 0 multiplicity 1
 O         0.121983        -0.045042         1.203992
 C        -0.823893         0.589811         0.304189
 C        -2.188561         0.580866         0.932247
 C        -1.541428         1.868212         0.646587
 C        -1.967745         2.918833        -0.320352
 C        -2.248145         2.803533        -1.629210
 C        -2.397134         1.605495        -2.516328
 O        -2.063512         0.279266        -1.885153
 C        -0.788047         0.090239        -1.188653
 H         1.053508         0.211592         0.967841
 H        -2.989659         0.404153         0.174263
 H        -2.226205         0.112828         1.913126
 H        -1.209757         2.410357         1.613063
 H        -2.064708         3.893782         0.161427
 H        -2.254349         3.734665        -2.269152
 H        -3.371347         1.543699        -3.014918
 H        -1.675255         1.807628        -3.217317
 H        -0.556149        -0.992465        -1.237381
 H         0.001002         0.556505        -1.701732
