19
Iteration:  3522
 O         0.115866         0.054026         0.951733
 C        -1.034146         0.532774         0.154331
 C        -2.111636         0.729934         1.190556
 C        -1.375532         1.876743         0.526067
 C        -2.263441         2.849337        -0.172181
 C        -2.423285         2.783902        -1.446339
 C        -1.780109         1.751330        -2.343766
 O        -1.995538         0.270432        -2.136767
 C        -1.098818        -0.169799        -1.172528
 H         0.918336         0.371874         0.628525
 H        -3.181793         0.710054         1.054186
 H        -1.762191         0.671542         2.232033
 H        -0.695793         2.430027         1.281095
 H        -2.990598         3.510897         0.398503
 H        -2.837890         3.583150        -2.023914
 H        -2.044661         1.833349        -3.354772
 H        -0.713018         1.806666        -2.400702
 H        -1.322614        -1.234730        -0.875049
 H        -0.071471        -0.207831        -1.601838
