19
Iteration:  1368
 O         0.162251         0.195189         1.020459
 C        -0.962476         0.523672         0.264504
 C        -2.294329         0.429662         0.879321
 C        -1.620349         1.763072         0.770932
 C        -1.742989         2.838130        -0.309306
 C        -2.171896         2.884706        -1.569112
 C        -2.301592         1.583686        -2.556442
 O        -2.092875         0.294272        -1.803277
 C        -0.862020         0.070545        -1.128875
 H         0.767442         0.817802         0.616896
 H        -3.145361         0.125204         0.296391
 H        -2.531647         0.325788         1.927536
 H        -1.030567         2.103896         1.655846
 H        -1.503969         3.863994         0.146341
 H        -2.199516         3.837674        -2.167832
 H        -3.302563         1.559287        -2.871900
 H        -1.639305         1.714516        -3.508993
 H        -0.814703        -1.074463        -0.994997
 H        -0.057520         0.689271        -1.556662
