19
Iteration:  2642
 O         0.164571         0.133827         0.902506
 C        -0.974886         0.497031         0.261276
 C        -2.154388         0.641510         1.250557
 C        -1.496473         1.907842         0.678743
 C        -2.249430         2.791619        -0.271832
 C        -2.218540         2.854953        -1.562881
 C        -1.950220         1.643914        -2.507665
 O        -1.980292         0.325699        -1.992758
 C        -1.075046        -0.126286        -1.120865
 H         0.903590         0.028413         0.336284
 H        -3.132874         0.502394         0.834838
 H        -1.973642         0.234564         2.230045
 H        -1.000857         2.519368         1.397429
 H        -2.591886         3.766573         0.155523
 H        -2.770390         3.699895        -2.052642
 H        -2.662814         1.619604        -3.333631
 H        -0.903009         1.911669        -3.001096
 H        -1.216697        -1.215030        -1.034213
 H         0.013263        -0.024830        -1.594015
