19
Iteration:  2113
 O         0.141647        -0.049293         0.955761
 C        -1.028726         0.535726         0.364932
 C        -2.367727         0.627176         0.936458
 C        -1.531761         1.929856         0.734536
 C        -1.766407         2.970089        -0.296024
 C        -2.245258         2.762895        -1.558595
 C        -2.349864         1.557900        -2.433609
 O        -1.962985         0.111719        -1.994368
 C        -0.787426         0.243250        -1.110731
 H         0.803590         0.693265         1.138700
 H        -3.124048         0.328174         0.213964
 H        -2.453759         0.236977         1.884086
 H        -1.145854         2.241761         1.695824
 H        -1.597471         3.958781         0.084583
 H        -2.550486         3.679696        -2.168720
 H        -3.341646         1.344588        -2.518596
 H        -2.095175         1.676767        -3.584180
 H        -0.292928        -0.745368        -1.134798
 H         0.053347         0.970539        -1.415325
