19
Iteration:  4487charge 0 multiplicity 1
 O         0.166205        -0.068583         1.114107
 C        -0.942584         0.561606         0.316181
 C        -2.310471         0.602717         0.971352
 C        -1.549760         1.822164         0.684202
 C        -1.943092         2.910557        -0.296371
 C        -2.188800         2.882821        -1.605579
 C        -2.359492         1.560953        -2.497726
 O        -1.987185         0.272526        -1.963251
 C        -0.796893         0.136021        -1.180536
 H         0.859506         0.576262         1.273661
 H        -3.223754         0.237560         0.518816
 H        -2.070201         0.305164         1.982238
 H        -1.100784         2.308884         1.513428
 H        -2.119559         3.775487         0.209223
 H        -2.362404         3.800691        -2.054610
 H        -3.326830         1.558170        -2.999221
 H        -1.821893         1.775124        -3.474523
 H        -0.460208        -1.004722        -1.153411
 H         0.041939         0.594219        -1.702748
