19
Iteration:  4505
 O         0.037371        -0.125364         0.993982
 C        -0.969874         0.475827         0.306333
 C        -2.251232         0.639460         1.063207
 C        -1.450119         1.926723         0.689372
 C        -2.018890         2.936742        -0.311176
 C        -2.315115         2.755624        -1.572556
 C        -2.222767         1.587195        -2.464535
 O        -1.920143         0.292895        -1.944383
 C        -0.766139         0.148799        -1.190377
 H         0.731052         0.504201         1.119605
 H        -3.137551         0.632467         0.469592
 H        -2.378268         0.323697         2.071222
 H        -0.942022         2.407286         1.543862
 H        -2.073458         4.047730        -0.032724
 H        -2.739573         3.630849        -2.137473
 H        -3.292345         1.395118        -2.784999
 H        -1.660603         1.827305        -3.396666
 H        -0.473131        -0.852572        -1.205844
 H         0.207221         0.665816        -1.460588
