19
Iteration:   221charge 0 multiplicity 1
 O         0.178844        -0.035373         0.922473
 C        -1.003586         0.540413         0.337483
 C        -2.252730         0.635961         1.149677
 C        -1.443108         1.947171         0.806963
 C        -2.102629         2.863884        -0.182846
 C        -2.382999         2.631263        -1.511766
 C        -2.074287         1.670565        -2.546024
 O        -1.919101         0.340812        -2.140437
 C        -0.939080         0.073469        -1.135565
 H         0.851221        -0.183030         0.179009
 H        -3.234956         0.536153         0.653198
 H        -2.097782         0.314219         2.197026
 H        -0.894555         2.563349         1.522061
 H        -2.535950         3.811374         0.284605
 H        -2.879250         3.562456        -1.896061
 H        -2.771325         1.699097        -3.395358
 H        -1.144384         2.120294        -3.083127
 H        -0.915386        -1.019114        -1.046556
 H         0.035725         0.270754        -1.720177
