19
Iteration:  2658
 O         0.270949         0.136609         0.966387
 C        -1.034640         0.409207         0.308047
 C        -2.159443         0.661633         1.249197
 C        -1.540302         1.886497         0.591823
 C        -2.225837         2.902014        -0.267917
 C        -2.385792         2.782437        -1.579821
 C        -1.827612         1.725022        -2.488021
 O        -2.088135         0.382526        -2.018377
 C        -1.005874        -0.191898        -1.126477
 H         0.771085        -0.106635         0.218217
 H        -3.174669         0.362402         0.860724
 H        -1.989401         0.604712         2.367002
 H        -0.548788         2.173027         1.172739
 H        -2.694987         3.657550         0.339787
 H        -2.718909         3.613327        -2.168339
 H        -2.428495         1.701127        -3.431033
 H        -0.707054         1.766142        -2.819054
 H        -1.168901        -1.311725        -1.153005
 H         0.069193         0.061575        -1.573277
