19
Iteration:  3410
 O         0.322031         0.143095         0.936038
 C        -1.036796         0.450773         0.307294
 C        -2.281706         0.503844         1.117711
 C        -1.546052         1.837317         0.687128
 C        -2.019822         2.913790        -0.267547
 C        -2.279974         2.758129        -1.616368
 C        -1.939153         1.674263        -2.492058
 O        -2.150205         0.384553        -1.961177
 C        -1.026426        -0.069321        -1.114494
 H         0.952296         0.883980         0.600690
 H        -3.174268         0.203246         0.544495
 H        -2.357059         0.092655         2.178366
 H        -1.022262         2.175802         1.541129
 H        -2.333286         3.903347         0.199928
 H        -2.569751         3.793377        -1.966279
 H        -2.466028         1.839256        -3.379168
 H        -0.864790         1.743086        -2.852194
 H        -1.091361        -1.155053        -1.073186
 H        -0.080702         0.171164        -1.629694
