19
Iteration:  3783
 O         0.206999         0.090395         1.017854
 C        -0.941265         0.541601         0.290355
 C        -2.236095         0.521476         1.072664
 C        -1.558886         1.878397         0.778139
 C        -2.037598         2.850206        -0.302052
 C        -2.216979         2.814095        -1.622359
 C        -2.006299         1.616202        -2.541249
 O        -2.115626         0.332475        -1.934441
 C        -0.974770         0.019359        -1.173941
 H         0.915997         0.601718         0.681686
 H        -3.213769         0.342880         0.611435
 H        -2.228841         0.051242         2.072126
 H        -0.907130         2.379041         1.616882
 H        -2.503517         3.741223         0.294453
 H        -2.933850         3.557689        -2.134876
 H        -2.701118         1.688876        -3.469456
 H        -1.003662         1.526444        -3.088862
 H        -0.965555        -1.038404        -1.066247
 H        -0.071901         0.407304        -1.644920
