19
Iteration:  1093charge 0 multiplicity 1
 O         0.199653        -0.004624         0.939606
 C        -0.905614         0.561495         0.328717
 C        -2.140422         0.771756         1.171137
 C        -1.412866         1.995175         0.584161
 C        -2.235282         2.823691        -0.157713
 C        -2.450884         2.737760        -1.524322
 C        -1.804638         1.683665        -2.444695
 O        -2.063515         0.299314        -2.144974
 C        -1.127880        -0.155124        -1.122161
 H         0.954348         0.193437         0.395833
 H        -3.084079         0.598742         0.681586
 H        -2.017395         0.499870         2.258562
 H        -0.915779         2.468767         1.416308
 H        -2.653196         3.664725         0.363723
 H        -3.009260         3.466135        -2.110650
 H        -2.134461         1.925802        -3.450462
 H        -0.672105         1.794281        -2.484174
 H        -1.453082        -1.240948        -0.925075
 H        -0.079445        -0.188244        -1.664322
