19
Iteration:    42
 O         0.123537        -0.079295         1.123305
 C        -0.840909         0.480064         0.238970
 C        -2.224769         0.646246         0.808784
 C        -1.424024         1.886282         0.656771
 C        -2.073341         2.854071        -0.250999
 C        -2.575856         2.793788        -1.498834
 C        -2.289269         1.674350        -2.420811
 O        -1.939126         0.408856        -1.874039
 C        -0.696935         0.117420        -1.174999
 H         0.342113        -1.017402         0.776929
 H        -2.903788         0.364303         0.034570
 H        -2.389712         0.152865         1.772479
 H        -0.813994         2.144731         1.488713
 H        -1.887071         3.864831         0.002042
 H        -2.631030         3.651307        -2.069149
 H        -2.980545         1.446718        -3.206412
 H        -1.372491         2.057479        -2.884244
 H        -0.808513        -0.965989        -1.268738
 H         0.180557         0.527387        -1.706492
