19
Iteration:  2891
 O         0.075647        -0.119131         0.977062
 C        -0.961670         0.591700         0.289759
 C        -2.345175         0.679824         0.989848
 C        -1.530744         1.859976         0.665535
 C        -1.906563         2.996178        -0.283444
 C        -2.241302         2.749565        -1.534567
 C        -2.405508         1.488606        -2.388038
 O        -1.853700         0.188308        -1.959866
 C        -0.723088         0.238344        -1.164063
 H         0.791115         0.513741         1.112623
 H        -3.228474         0.508926         0.280087
 H        -2.529496         0.496558         2.074330
 H        -1.204588         2.159997         1.615791
 H        -1.630380         4.051597         0.060077
 H        -2.434382         3.626205        -2.260786
 H        -3.582632         1.507479        -2.639893
 H        -2.051039         1.620602        -3.394131
 H        -0.242006        -0.750263        -1.165279
 H         0.119856         0.813622        -1.635022
