19
Iteration:  1566
 O         0.177412         0.253182         0.984309
 C        -1.033458         0.458055         0.212953
 C        -2.115341         0.411376         1.152932
 C        -1.581678         1.883250         0.617817
 C        -2.060418         2.922682        -0.209466
 C        -2.132310         2.862974        -1.592870
 C        -1.885402         1.649594        -2.509459
 O        -2.155739         0.339286        -1.905223
 C        -1.118669        -0.152069        -1.182657
 H         0.852937         0.674002         0.505953
 H        -3.150199         0.288925         0.871251
 H        -1.914984         0.422802         2.233372
 H        -0.899867         2.234740         1.415043
 H        -2.466020         3.825327         0.243656
 H        -2.582707         3.628451        -2.145693
 H        -2.673802         1.700370        -3.208048
 H        -0.951399         1.663190        -3.074502
 H        -1.098926        -1.347552        -1.023768
 H        -0.153638        -0.075882        -1.729728
