19
Iteration:  3444charge 0 multiplicity 1
 O         0.215027         0.111699         0.942876
 C        -1.002860         0.455907         0.231025
 C        -2.122282         0.525453         1.238019
 C        -1.538890         1.877821         0.543847
 C        -2.306107         2.890492        -0.240161
 C        -2.232533         2.833428        -1.578901
 C        -1.783042         1.717775        -2.445071
 O        -2.109190         0.453652        -1.938716
 C        -1.077066        -0.214901        -1.146449
 H         0.931224         0.534700         0.443252
 H        -3.160365         0.238874         0.963784
 H        -1.727417         0.231543         2.197322
 H        -0.744827         2.449667         1.005257
 H        -3.013643         3.635781         0.177362
 H        -2.563202         3.617143        -2.195252
 H        -2.317847         1.840855        -3.330622
 H        -0.716492         1.747335        -2.681645
 H        -1.356912        -1.269703        -1.020570
 H        -0.090410        -0.178540        -1.629231
