19
Iteration:  3629charge 0 multiplicity 1
 O         0.218237         0.130747         1.144431
 C        -0.929236         0.513630         0.337337
 C        -2.319390         0.401218         0.886151
 C        -1.503920         1.828243         0.756893
 C        -1.809997         2.871214        -0.280123
 C        -2.183187         2.811250        -1.635510
 C        -2.315876         1.575324        -2.504467
 O        -2.121996         0.306867        -1.961041
 C        -0.923865         0.167897        -1.143158
 H         0.808248         0.824397         0.908022
 H        -3.074819         0.283368         0.113029
 H        -2.498933        -0.130971         1.844319
 H        -1.173957         2.164724         1.688555
 H        -1.877545         3.979466        -0.032969
 H        -2.036470         3.787931        -2.050588
 H        -3.376613         1.437273        -2.799228
 H        -1.580337         1.686598        -3.387722
 H        -0.663501        -0.850839        -1.284321
 H        -0.054882         0.706693        -1.707721
