19
Iteration:  4433
 O         0.222348         0.174015         1.014955
 C        -0.956145         0.479102         0.336969
 C        -2.328175         0.386364         0.895658
 C        -1.732202         1.771855         0.642609
 C        -1.909769         2.875837        -0.297223
 C        -2.020906         2.796986        -1.633891
 C        -2.187888         1.569276        -2.421322
 O        -2.168698         0.365963        -1.759896
 C        -0.844119         0.148048        -1.201130
 H         0.920729         0.653510         0.520592
 H        -3.176940         0.034052         0.331758
 H        -2.408929         0.309104         1.958450
 H        -1.421804         2.160195         1.567552
 H        -1.608865         3.877348         0.059424
 H        -2.078579         3.614933        -2.234255
 H        -3.223889         1.711038        -2.770808
 H        -1.482091         1.607183        -3.269255
 H        -0.315010        -0.909298        -1.294093
 H        -0.132036         0.889524        -1.578184
