19
Iteration:  3944charge 0 multiplicity 1
 O         0.154112        -0.086900         1.128518
 C        -0.925433         0.535905         0.274635
 C        -2.196337         0.699634         1.029081
 C        -1.302486         1.950219         0.563415
 C        -2.163653         2.842638        -0.261479
 C        -2.520570         2.676580        -1.498073
 C        -1.915213         1.711688        -2.486938
 O        -2.054880         0.360881        -2.065184
 C        -0.981413        -0.042108        -1.139417
 H         0.974873         0.143004         0.793643
 H        -3.185975         0.706828         0.532292
 H        -2.255770         0.600554         2.120822
 H        -0.808663         2.421708         1.434639
 H        -2.632525         3.748535         0.448119
 H        -3.222299         3.490954        -1.951677
 H        -2.386393         1.887053        -3.507785
 H        -0.716340         1.865107        -2.698706
 H        -1.070198        -1.215038        -1.152771
 H        -0.039019         0.385213        -1.585351
