19
Iteration:  4800charge 0 multiplicity 1
 O         0.148211        -0.020708         0.979394
 C        -0.937431         0.580879         0.327741
 C        -2.312670         0.547600         1.012524
 C        -1.588903         1.870903         0.728811
 C        -1.986033         2.853913        -0.275381
 C        -2.164989         2.795477        -1.590932
 C        -2.193810         1.605913        -2.461956
 O        -2.072465         0.272762        -1.905296
 C        -0.777653         0.139110        -1.220030
 H         0.859833         0.619526         0.994872
 H        -3.262634         0.285383         0.419845
 H        -2.379551         0.199282         2.097878
 H        -1.036924         2.339700         1.618490
 H        -2.254468         3.790728         0.210220
 H        -2.131228         3.655202        -2.239136
 H        -3.165923         1.645173        -2.913876
 H        -1.480203         1.770095        -3.367187
 H        -0.540837        -0.910265        -1.227654
 H        -0.097323         0.757913        -1.802398
