19
Iteration:  2999
 O         0.278103         0.101197         0.902141
 C        -0.973298         0.555989         0.346372
 C        -2.296845         0.514268         1.080101
 C        -1.538215         1.871263         0.737121
 C        -2.018149         2.871113        -0.254465
 C        -2.224680         2.744395        -1.611830
 C        -2.008289         1.599001        -2.571876
 O        -2.151681         0.373289        -1.914486
 C        -0.961680        -0.044016        -1.119003
 H         0.855520         0.914153         0.785779
 H        -3.087726         0.266851         0.320607
 H        -2.613343         0.249249         2.167985
 H        -1.027363         2.275858         1.563878
 H        -2.097791         3.964114         0.165454
 H        -2.764281         3.696869        -1.963020
 H        -2.713490         1.693784        -3.288539
 H        -0.948534         1.667262        -2.925192
 H        -0.984562        -1.167030        -1.003537
 H        -0.201079         0.418626        -1.680760
