19
Iteration:  4490charge 0 multiplicity 1
 O         0.146738        -0.084935         1.090832
 C        -0.953514         0.568933         0.301969
 C        -2.304437         0.626046         0.995739
 C        -1.540956         1.839364         0.692112
 C        -1.955179         2.892645        -0.295790
 C        -2.205501         2.881447        -1.623594
 C        -2.353825         1.545962        -2.487095
 O        -1.955691         0.286215        -1.964725
 C        -0.781845         0.110796        -1.175945
 H         0.844309         0.518341         1.288631
 H        -3.242096         0.243777         0.501877
 H        -2.121565         0.335039         2.080850
 H        -1.033337         2.324256         1.546318
 H        -2.100497         3.896853         0.418833
 H        -2.478510         3.840238        -2.133309
 H        -3.308199         1.519367        -3.004912
 H        -1.798307         1.745608        -3.409136
 H        -0.482340        -0.998597        -1.223256
 H        -0.004920         0.683044        -1.749347
