19
Iteration:  3162charge 0 multiplicity 1
 O         0.229675         0.043158         0.991506
 C        -0.934707         0.558547         0.308295
 C        -2.248324         0.543598         1.061262
 C        -1.497260         1.882561         0.728365
 C        -2.041843         2.936138        -0.219030
 C        -2.327446         2.830355        -1.581274
 C        -1.970782         1.685576        -2.604207
 O        -2.092884         0.306605        -1.995350
 C        -1.015436        -0.091363        -1.114781
 H         1.042504         0.458745         0.495861
 H        -3.206447         0.070891         0.643093
 H        -1.993987         0.389880         2.124135
 H        -1.050291         2.280953         1.578697
 H        -2.497993         3.874803         0.239891
 H        -2.897905         3.703552        -1.902934
 H        -2.794941         1.566896        -3.388429
 H        -0.950981         1.786435        -2.921235
 H        -1.134330        -1.194771        -0.965837
 H        -0.088388         0.240905        -1.564361
