19
Iteration:   715
 O         0.312231         0.023449         0.795360
 C        -0.999809         0.500651         0.317612
 C        -2.203428         0.639067         1.285070
 C        -1.550692         1.950769         0.699351
 C        -2.140932         2.918588        -0.293610
 C        -2.362245         2.784128        -1.584884
 C        -1.851168         1.656390        -2.461726
 O        -2.108255         0.300307        -2.044301
 C        -1.086845        -0.132687        -1.131216
 H         0.873485         0.705238         1.233747
 H        -3.094491         0.223879         0.796012
 H        -2.059333         0.327231         2.311640
 H        -1.048342         2.529736         1.513319
 H        -2.372331         3.938898         0.170317
 H        -2.755025         3.682364        -2.124662
 H        -2.246364         1.617698        -3.457870
 H        -0.778010         1.851841        -2.584437
 H        -1.113501        -1.228791        -1.101040
 H        -0.146829         0.282714        -1.530109
