19
Iteration:    80charge 0 multiplicity 1
 O         0.165669         0.065851         0.968353
 C        -1.012761         0.462679         0.285272
 C        -2.323883         0.638014         1.037687
 C        -1.398095         1.816703         0.730234
 C        -2.029800         2.838217        -0.124545
 C        -2.163201         2.759457        -1.494947
 C        -2.280693         1.580173        -2.498589
 O        -1.970143         0.217672        -2.108735
 C        -0.806544         0.293333        -1.222163
 H         0.057826        -0.783484         1.476418
 H        -3.126939         0.458479         0.293127
 H        -2.425383         0.186271         2.032760
 H        -0.777291         2.264971         1.551227
 H        -2.493840         3.699569         0.456450
 H        -2.723437         3.714919        -1.875008
 H        -3.302022         1.671890        -2.950235
 H        -1.624547         1.874603        -3.284383
 H        -0.109665        -0.544733        -1.296213
 H        -0.227904         1.172932        -1.498513
