19
Iteration:  1785
 O         0.232275         0.001911         1.146276
 C        -0.966865         0.477031         0.346582
 C        -2.266443         0.384371         0.940013
 C        -1.519577         1.855295         0.633386
 C        -1.849609         2.904587        -0.363916
 C        -2.233999         2.836756        -1.685909
 C        -2.225900         1.586990        -2.484785
 O        -2.140164         0.382751        -1.829923
 C        -0.938908         0.232111        -1.111784
 H         0.940688         0.394096         0.550665
 H        -2.955876        -0.024705         0.185108
 H        -2.239258         0.090634         2.025500
 H        -1.179372         2.260354         1.571594
 H        -1.841732         3.920505         0.020269
 H        -2.669626         3.671964        -2.327403
 H        -3.282924         1.569654        -3.020504
 H        -1.474009         1.573033        -3.267282
 H        -0.513649        -0.768986        -1.194205
 H        -0.058847         0.751297        -1.652556
