19
Iteration:  2928
 O         0.060113         0.003713         1.179812
 C        -0.847294         0.599964         0.279781
 C        -2.288017         0.553420         0.849778
 C        -1.409644         1.852492         0.661062
 C        -1.901483         2.878376        -0.288800
 C        -2.255847         2.706909        -1.537984
 C        -2.377120         1.558089        -2.534239
 O        -2.064709         0.263056        -1.880490
 C        -0.761489         0.230179        -1.192994
 H         1.030289         0.129111         0.945322
 H        -3.095178         0.494071         0.151755
 H        -2.561245         0.223662         1.853340
 H        -1.138093         2.366109         1.636731
 H        -1.670456         3.825667         0.053160
 H        -2.542735         3.615356        -2.023496
 H        -3.434697         1.405961        -2.860147
 H        -1.614195         1.798862        -3.276433
 H        -0.554859        -0.808448        -1.330322
 H        -0.069781         1.039995        -1.547691
