19
Iteration:   418
 O         0.067923        -0.057334         1.017702
 C        -0.882743         0.573388         0.189302
 C        -2.160094         0.564613         0.902670
 C        -1.483236         1.915926         0.691461
 C        -2.090191         2.913810        -0.242190
 C        -2.449992         2.797732        -1.584002
 C        -2.105830         1.603021        -2.478711
 O        -2.058682         0.316960        -1.762851
 C        -0.772607         0.062828        -1.215448
 H         0.832449         0.541054         1.295869
 H        -3.086818         0.538050         0.298673
 H        -2.113204         0.021169         1.884649
 H        -0.912961         2.416735         1.428215
 H        -2.011780         3.905069         0.208124
 H        -2.834678         3.611570        -2.105243
 H        -2.681845         1.489418        -3.408437
 H        -0.972504         1.763380        -2.629833
 H        -0.826568        -0.996592        -1.048382
 H        -0.025826         0.295561        -1.931012
