19
Iteration:  4566charge 0 multiplicity 1
 O         0.051757        -0.015970         1.131689
 C        -0.887763         0.528012         0.211095
 C        -2.182209         0.616850         1.011048
 C        -1.388871         1.865698         0.555901
 C        -2.123558         2.916524        -0.236899
 C        -2.462307         2.816933        -1.527153
 C        -2.056080         1.612426        -2.508146
 O        -1.936451         0.362828        -1.943675
 C        -0.902960        -0.024350        -1.167067
 H         1.017104         0.145579         0.858965
 H        -3.133399         0.540774         0.434654
 H        -2.147277         0.334470         2.103532
 H        -0.845017         2.324537         1.415768
 H        -2.364538         3.824678         0.386255
 H        -3.086418         3.672116        -1.958183
 H        -2.875621         1.496967        -3.231146
 H        -1.022685         1.870286        -3.039834
 H        -1.149224        -1.159290        -1.077885
 H        -0.006570         0.332997        -1.740604
