19
Iteration:   415
 O         0.084391        -0.037307         0.998736
 C        -0.897120         0.557792         0.186238
 C        -2.190111         0.548242         0.912112
 C        -1.489132         1.928392         0.696242
 C        -2.097522         2.937036        -0.257198
 C        -2.438911         2.816717        -1.583889
 C        -2.063102         1.596977        -2.435677
 O        -2.065379         0.311129        -1.754293
 C        -0.792780         0.051143        -1.217554
 H         0.901304         0.582274         1.102538
 H        -3.026679         0.433279         0.205761
 H        -2.107711         0.036091         1.878942
 H        -0.882859         2.295546         1.567289
 H        -2.069054         3.889145         0.233111
 H        -2.815835         3.654983        -2.204071
 H        -2.610969         1.349726        -3.332390
 H        -1.015029         1.744237        -2.696877
 H        -0.866758        -1.065996        -1.131193
 H        -0.009435         0.381429        -1.908476
