19
Iteration:  2071
 O         0.046598        -0.048007         1.166378
 C        -0.868088         0.538672         0.236904
 C        -2.225017         0.595503         0.882975
 C        -1.448219         1.930133         0.663659
 C        -1.966846         2.913338        -0.254241
 C        -2.277841         2.816313        -1.575603
 C        -2.325793         1.525432        -2.487295
 O        -2.061516         0.241840        -1.869234
 C        -0.730346         0.129789        -1.226307
 H         0.785890         0.537199         1.307016
 H        -3.090226         0.493784         0.239846
 H        -2.388856         0.143853         1.814386
 H        -0.873354         2.392038         1.446908
 H        -1.729412         3.902909         0.103812
 H        -2.540561         3.786811        -1.944053
 H        -3.440732         1.486383        -2.818709
 H        -1.680558         1.593020        -3.359575
 H        -0.304311        -0.825193        -1.357949
 H        -0.210038         0.906125        -1.836477
