19
Iteration:  4857
 O         0.220342         0.150507         1.148894
 C        -0.922198         0.434593         0.365099
 C        -2.242948         0.350663         0.906721
 C        -1.655702         1.757690         0.660457
 C        -1.895926         2.851654        -0.306672
 C        -2.098831         2.851749        -1.653197
 C        -2.293142         1.643712        -2.553873
 O        -2.150805         0.418306        -1.823349
 C        -0.906137         0.092786        -1.208272
 H         0.940470         0.814423         1.013217
 H        -3.150084         0.075125         0.278638
 H        -2.203320         0.158438         2.060369
 H        -1.168051         2.254908         1.557935
 H        -1.532172         3.755715         0.120071
 H        -2.216927         3.921045        -2.125000
 H        -3.337330         1.612381        -2.970537
 H        -1.490669         1.682577        -3.433047
 H        -0.502252        -0.921761        -1.278299
 H        -0.094102         0.668754        -1.723494
