19
Iteration:   153charge 0 multiplicity 1
 O         0.318293         0.236009         1.115994
 C        -0.839843         0.399925         0.218646
 C        -2.334146         0.459896         0.822554
 C        -1.605344         1.672003         0.685311
 C        -1.970696         2.810025        -0.260030
 C        -2.169888         2.841331        -1.582735
 C        -2.274616         1.636699        -2.519756
 O        -2.190154         0.442686        -1.685285
 C        -0.798211         0.110973        -1.326994
 H         0.073322        -0.253295         1.866373
 H        -3.094425         0.392100         0.065866
 H        -2.394441        -0.079585         1.738740
 H        -1.102377         2.041896         1.616255
 H        -2.121751         3.767629         0.293789
 H        -2.153361         3.862798        -1.950246
 H        -3.145502         1.644664        -3.166883
 H        -1.327260         1.668328        -3.197848
 H        -0.666805        -0.944717        -1.568230
 H        -0.015877         0.797144        -1.802603
