19
Iteration:  1156
 O         0.341994         0.169480         0.930676
 C        -0.890060         0.489692         0.251672
 C        -2.104331         0.501157         1.227198
 C        -1.691044         1.844930         0.602474
 C        -2.281646         2.891968        -0.337687
 C        -2.078983         2.989822        -1.681699
 C        -1.794194         1.655251        -2.389170
 O        -2.242963         0.371745        -1.918696
 C        -1.184586        -0.225055        -1.114605
 H         0.995807         0.537191         0.375130
 H        -2.948950        -0.028911         0.863859
 H        -1.769620         0.254477         2.215290
 H        -1.188676         2.536357         1.343523
 H        -2.935798         3.608389         0.238737
 H        -2.577468         3.763266        -2.183209
 H        -2.221443         1.718068        -3.341837
 H        -0.703756         1.565649        -2.575733
 H        -1.486378        -1.262848        -0.875260
 H        -0.267627        -0.197310        -1.729179
