19
Iteration:  1974
 O         0.237552         0.142096         0.947576
 C        -0.992990         0.605038         0.201281
 C        -2.195415         0.527318         1.128198
 C        -1.500296         1.922694         0.742605
 C        -2.148518         2.860305        -0.244884
 C        -2.227236         2.830374        -1.599608
 C        -1.938428         1.638000        -2.438815
 O        -2.102277         0.287834        -1.999892
 C        -1.095134        -0.209600        -1.162409
 H         0.728464         0.911069         1.090029
 H        -3.191582         0.469317         0.786272
 H        -1.980022        -0.022357         2.034846
 H        -0.875964         2.602558         1.311839
 H        -2.359826         3.812872         0.248447
 H        -2.253255         3.753116        -2.084258
 H        -2.753781         1.843691        -3.296735
 H        -0.848509         1.881081        -2.879179
 H        -1.189919        -1.296320        -1.028587
 H        -0.082908        -0.008215        -1.643241
