19
Iteration:  1090charge 0 multiplicity 1
 O         0.190134        -0.038370         0.970157
 C        -0.899136         0.553617         0.308112
 C        -2.104597         0.813264         1.183158
 C        -1.438565         1.983789         0.593341
 C        -2.245706         2.827782        -0.177818
 C        -2.463457         2.756773        -1.524232
 C        -1.817610         1.676499        -2.435131
 O        -2.057594         0.294100        -2.151507
 C        -1.129132        -0.142506        -1.135267
 H         1.001967         0.286799         0.411892
 H        -3.000372         0.525194         0.610169
 H        -1.953121         0.417119         2.148838
 H        -0.782326         2.446139         1.405923
 H        -2.646933         3.736056         0.385956
 H        -3.044637         3.428673        -2.132335
 H        -2.116810         1.863840        -3.428627
 H        -0.688912         1.799903        -2.476976
 H        -1.452872        -1.203688        -1.011059
 H        -0.077656        -0.104399        -1.540091
