19
Iteration:   763
 O         0.341605         0.301211         0.927789
 C        -0.946530         0.386797         0.274362
 C        -2.186198         0.559089         1.128990
 C        -1.603198         1.779729         0.646540
 C        -2.152447         2.891074        -0.211766
 C        -2.073052         2.877719        -1.586025
 C        -1.958473         1.651091        -2.490574
 O        -2.235242         0.336557        -1.947460
 C        -1.073079        -0.214722        -1.166162
 H         0.719025         1.187768         1.088902
 H        -3.142670         0.410238         0.600657
 H        -2.246736         0.402033         2.215549
 H        -0.980303         2.287470         1.376539
 H        -2.459483         3.711498         0.361850
 H        -2.271380         3.755742        -2.179015
 H        -2.698566         1.671669        -3.401000
 H        -0.935122         1.548941        -2.983367
 H        -1.414725        -1.274516        -0.868433
 H        -0.170059        -0.153330        -1.820991
