19
Iteration:  3160charge 0 multiplicity 1
 O         0.234895         0.052238         0.990884
 C        -0.936914         0.548410         0.299263
 C        -2.255899         0.534559         1.075186
 C        -1.497902         1.888673         0.717326
 C        -2.024599         2.944370        -0.223936
 C        -2.344781         2.811350        -1.553504
 C        -1.955816         1.700412        -2.608211
 O        -2.095938         0.305679        -2.012465
 C        -1.015894        -0.103058        -1.098328
 H         1.010409         0.438176         0.485636
 H        -3.196327         0.100405         0.655531
 H        -2.023802         0.446741         2.159119
 H        -1.099299         2.315704         1.605647
 H        -2.472186         3.882359         0.202598
 H        -2.969142         3.735155        -1.879710
 H        -2.814781         1.600431        -3.430446
 H        -0.927337         1.758540        -2.959241
 H        -1.150211        -1.184668        -0.975377
 H        -0.012053         0.202633        -1.590903
