19
Iteration:  3383charge 0 multiplicity 1
 O         0.184218         0.056302         0.974715
 C        -0.921676         0.586574         0.302017
 C        -2.213915         0.558747         0.910917
 C        -1.549260         1.886949         0.766636
 C        -2.003875         2.845392        -0.235622
 C        -2.190128         2.787730        -1.560660
 C        -2.127612         1.621340        -2.518749
 O        -2.138512         0.278759        -1.929221
 C        -0.912459         0.036386        -1.117415
 H         1.007954         0.626900         0.845909
 H        -3.086081         0.354194         0.299604
 H        -2.411863         0.285746         1.906257
 H        -1.192796         2.290195         1.776223
 H        -2.379129         3.716839         0.243770
 H        -2.465897         3.757803        -1.819795
 H        -2.907727         1.751006        -3.360927
 H        -1.233548         1.669713        -3.173370
 H        -0.821847        -1.078473        -1.029031
 H        -0.028686         0.303399        -1.757502
