19
Iteration:    43charge 0 multiplicity 1
 O         0.113342        -0.075396         1.123940
 C        -0.842796         0.487062         0.233804
 C        -2.219794         0.643863         0.819462
 C        -1.425079         1.889333         0.663990
 C        -2.065246         2.854348        -0.254539
 C        -2.570834         2.779030        -1.488706
 C        -2.290943         1.672681        -2.427933
 O        -1.943376         0.409584        -1.880179
 C        -0.694721         0.124039        -1.178955
 H         0.339488        -1.021174         0.793644
 H        -2.908300         0.348675         0.060993
 H        -2.382467         0.129416         1.758628
 H        -0.806574         2.137527         1.487891
 H        -1.875640         3.869820         0.005014
 H        -2.615092         3.629494        -2.072853
 H        -2.962588         1.460058        -3.228377
 H        -1.394997         2.051338        -2.869901
 H        -0.782581        -0.947324        -1.291118
 H         0.166587         0.517173        -1.715043
