19
Iteration:   955charge 0 multiplicity 1
 O         0.324012         0.114564         1.067936
 C        -0.933547         0.485031         0.442329
 C        -2.360243         0.428995         0.938758
 C        -1.555108         1.767264         0.682900
 C        -1.790079         2.819548        -0.364231
 C        -2.066718         2.742056        -1.681457
 C        -2.324794         1.625479        -2.466858
 O        -2.212365         0.315761        -1.861022
 C        -0.942823         0.241006        -1.198993
 H         0.601639         0.994985         1.524079
 H        -2.984498        -0.023109         0.133120
 H        -2.536152        -0.012612         1.930461
 H        -1.246775         2.268271         1.560502
 H        -1.787131         3.797557         0.051095
 H        -2.128951         3.693378        -2.148272
 H        -3.396231         1.666360        -2.828183
 H        -1.656811         1.707558        -3.372795
 H        -0.401057        -0.571414        -1.601637
 H        -0.382255         1.191130        -1.559732
