19
Iteration:   468charge 0 multiplicity 1
 O         0.169882        -0.071054         0.966765
 C        -1.036540         0.482816         0.298417
 C        -2.355785         0.772419         1.108762
 C        -1.385417         1.833166         0.671908
 C        -1.969440         2.855547        -0.272860
 C        -2.453110         2.735385        -1.520873
 C        -2.312877         1.632404        -2.511177
 O        -1.867391         0.265906        -2.082872
 C        -0.707947         0.111853        -1.109420
 H         0.256366         0.266536         1.914861
 H        -3.316602         0.735248         0.603817
 H        -2.378268         0.519767         2.168103
 H        -0.690045         2.314630         1.420938
 H        -1.947754         3.836497         0.174833
 H        -2.756232         3.699299        -2.073640
 H        -3.337913         1.366087        -2.888028
 H        -1.601590         1.995040        -3.307852
 H        -0.249522        -0.896412        -1.366118
 H         0.026828         0.868990        -1.552350
