19
Iteration:  4703
 O         0.131553        -0.031808         1.009266
 C        -0.918512         0.522506         0.232805
 C        -2.137339         0.647683         0.966424
 C        -1.469879         1.901395         0.666476
 C        -2.138187         2.829015        -0.261650
 C        -2.413069         2.751330        -1.554164
 C        -1.897452         1.650858        -2.459651
 O        -2.088447         0.395698        -1.895331
 C        -0.989411         0.007874        -1.170409
 H         0.957274         0.314115         0.828527
 H        -3.156893         0.317862         0.618205
 H        -1.874272         0.318474         2.019813
 H        -0.970736         2.430002         1.528543
 H        -2.625566         3.673947         0.172997
 H        -2.948708         3.585223        -1.999010
 H        -2.486952         1.619014        -3.420506
 H        -0.782838         1.740784        -2.802512
 H        -1.041527        -1.021779        -0.943312
 H        -0.012783         0.390518        -1.641151
