19
Iteration:   343
 O         0.235340         0.362455         0.850561
 C        -0.989688         0.537051         0.237816
 C        -2.191821         0.379197         1.322776
 C        -1.668451         1.739725         0.693441
 C        -2.101061         2.845148        -0.184481
 C        -2.103637         2.867394        -1.595352
 C        -1.908069         1.669151        -2.556393
 O        -2.101645         0.332991        -2.076881
 C        -1.098921        -0.035317        -1.128111
 H         0.239578        -0.511686         1.369182
 H        -2.960745        -0.306605         1.009476
 H        -1.704535         0.354611         2.299857
 H        -1.108016         2.157770         1.454533
 H        -2.274754         3.771592         0.361518
 H        -2.411528         3.765409        -2.020541
 H        -2.684484         1.812599        -3.325157
 H        -0.955536         1.496402        -3.041979
 H        -1.181136        -1.113998        -1.045631
 H        -0.174423         0.353037        -1.706034
