19
Iteration:  2483
 O         0.168672        -0.056392         1.048573
 C        -0.953228         0.551749         0.307045
 C        -2.300197         0.589503         0.900884
 C        -1.478610         1.933511         0.701389
 C        -1.890945         2.933795        -0.268332
 C        -2.185125         2.728266        -1.578259
 C        -2.376107         1.496840        -2.474950
 O        -2.024088         0.228635        -1.946408
 C        -0.802618         0.238793        -1.136448
 H         0.790752         0.647731         1.287841
 H        -3.314014         0.415129         0.442934
 H        -2.380905         0.195274         1.915072
 H        -1.231534         2.402086         1.722920
 H        -2.003310         3.951927         0.136224
 H        -2.398999         3.615507        -2.208468
 H        -3.423970         1.317369        -2.884838
 H        -1.841730         1.688939        -3.517806
 H        -0.408904        -0.814522        -1.213803
 H        -0.067359         1.062809        -1.506997
