19
Iteration:  4716charge 0 multiplicity 1
 O         0.092492        -0.145614         1.050142
 C        -0.844542         0.592176         0.245072
 C        -2.202292         0.643679         1.048949
 C        -1.370505         1.950113         0.601209
 C        -2.215379         2.888324        -0.225618
 C        -2.434742         2.806287        -1.579236
 C        -1.965428         1.663743        -2.501404
 O        -2.107868         0.310179        -1.905851
 C        -0.849993         0.029380        -1.179732
 H         1.003142         0.324154         0.891043
 H        -3.133596         0.545866         0.390648
 H        -2.238794         0.288828         2.128295
 H        -0.815335         2.421893         1.480540
 H        -2.504355         3.679530         0.386230
 H        -3.239544         3.480386        -2.042104
 H        -2.468343         1.698894        -3.539741
 H        -0.803929         1.874863        -2.653487
 H        -0.786535        -1.089187        -1.190662
 H         0.007758         0.172437        -1.844829
