19
Iteration:  2233charge 0 multiplicity 1
 O         0.196325         0.010537         1.052382
 C        -0.939093         0.544325         0.247809
 C        -2.168623         0.682616         1.156794
 C        -1.520245         1.936373         0.689226
 C        -2.135541         2.818509        -0.233033
 C        -2.211732         2.776480        -1.547846
 C        -2.066937         1.653566        -2.525968
 O        -2.032268         0.279330        -2.069611
 C        -1.023344        -0.065886        -1.219541
 H         0.742598         0.800967         1.016314
 H        -3.174993         0.476600         0.875073
 H        -1.934323         0.412994         2.207691
 H        -1.041764         2.589933         1.419221
 H        -2.487705         3.747307         0.147171
 H        -2.552159         3.745403        -1.917604
 H        -2.878134         1.620116        -3.307251
 H        -1.110519         1.772271        -3.084384
 H        -1.126588        -1.153439        -0.977471
 H        -0.087875         0.110098        -1.694104
