19
Iteration:  4662
 O         0.322717         0.247970         0.921581
 C        -1.021330         0.458887         0.328447
 C        -2.228053         0.509653         1.153593
 C        -1.659236         1.746290         0.628712
 C        -2.118319         2.856205        -0.235580
 C        -2.150074         2.886138        -1.556472
 C        -1.918228         1.709994        -2.488809
 O        -2.076449         0.325492        -2.033097
 C        -1.099616        -0.166378        -1.091241
 H         0.913893         0.768672         0.236259
 H        -3.218086         0.090545         0.753850
 H        -2.051553         0.407870         2.282482
 H        -1.191810         2.375718         1.454433
 H        -2.399541         3.667830         0.334658
 H        -2.294862         3.869055        -2.141656
 H        -2.760854         1.726065        -3.251506
 H        -0.878967         1.915607        -2.819220
 H        -1.376446        -1.303318        -1.193266
 H        -0.156946         0.215959        -1.514875
