19
Iteration:  1729
 O         0.077130        -0.023761         1.012483
 C        -0.927932         0.645179         0.271555
 C        -2.279962         0.489030         0.860763
 C        -1.526557         1.892114         0.651974
 C        -1.901817         2.943846        -0.230802
 C        -2.039320         2.772501        -1.590389
 C        -2.403916         1.510337        -2.332986
 O        -2.020923         0.209024        -1.966105
 C        -0.774399         0.209160        -1.151825
 H         0.785256         0.613301         1.353468
 H        -3.156514         0.351887         0.176351
 H        -2.391676         0.484264         1.977018
 H        -1.194554         2.226480         1.600183
 H        -2.079472         3.874009         0.269089
 H        -2.216596         3.627539        -2.190000
 H        -3.594786         1.570425        -2.311021
 H        -2.167363         1.643706        -3.429040
 H        -0.489885        -0.832663        -0.988478
 H         0.044475         0.839255        -1.720229
