19
Iteration:   530
 O         0.290714         0.120886         1.002002
 C        -0.902393         0.437099         0.293495
 C        -2.354431         0.502386         0.831261
 C        -1.586360         1.817121         0.634242
 C        -1.949514         2.849871        -0.294480
 C        -2.134337         2.737600        -1.619269
 C        -2.291006         1.610451        -2.459247
 O        -2.124281         0.370715        -1.708354
 C        -0.781802         0.165858        -1.210944
 H         0.047514         0.166979         1.994905
 H        -3.126556         0.349219         0.091111
 H        -2.599690         0.304272         1.880407
 H        -1.019470         2.081392         1.587546
 H        -1.826416         3.894953         0.102441
 H        -2.440769         3.632785        -2.248620
 H        -3.350970         1.507064        -2.914301
 H        -1.582037         1.571001        -3.254597
 H        -0.434479        -0.861327        -1.328726
 H        -0.138856         0.961944        -1.484498
