19
Iteration:   441
 O         0.121410        -0.131326         1.131812
 C        -0.880583         0.521815         0.300024
 C        -2.201408         0.692408         0.953870
 C        -1.299082         1.929848         0.647357
 C        -2.021124         2.866184        -0.261674
 C        -2.474311         2.715283        -1.570667
 C        -2.186157         1.641100        -2.520391
 O        -2.006321         0.345404        -1.989748
 C        -0.833903         0.112324        -1.201969
 H         0.342275         0.485532         1.883609
 H        -3.025907         0.413523         0.282757
 H        -2.228573         0.387836         2.018590
 H        -0.957759         2.367846         1.574167
 H        -2.556835         3.642351         0.353041
 H        -3.135211         3.453643        -2.004194
 H        -3.185563         1.437836        -2.952778
 H        -1.355206         1.870720        -3.307194
 H        -0.730071        -0.940198        -1.309890
 H        -0.054525         0.621603        -1.749815
