19
Iteration:  1474charge 0 multiplicity 1
 O         0.142647         0.061738         1.082828
 C        -0.971485         0.519317         0.204034
 C        -2.124972         0.749332         1.126502
 C        -1.356315         1.978778         0.607215
 C        -2.167440         2.920107        -0.192695
 C        -2.425987         2.741094        -1.436936
 C        -1.869980         1.671988        -2.406154
 O        -2.012970         0.262470        -2.155981
 C        -1.120323        -0.230831        -1.234427
 H         1.013443         0.172822         0.613428
 H        -3.101049         0.788386         0.554822
 H        -2.158671         0.495079         2.210477
 H        -0.665188         2.555616         1.235472
 H        -2.675450         3.660313         0.425955
 H        -3.249193         3.497147        -1.825722
 H        -2.461263         1.900504        -3.404362
 H        -0.865006         1.926059        -2.571671
 H        -1.222544        -1.308699        -1.262608
 H        -0.066557        -0.155403        -1.596194
