19
Iteration:  4864charge 0 multiplicity 1
 O         0.183065         0.161594         1.137934
 C        -0.944829         0.462033         0.283134
 C        -2.259772         0.332528         0.970707
 C        -1.596602         1.780632         0.672844
 C        -1.892461         2.914917        -0.285329
 C        -2.117526         2.814562        -1.609351
 C        -2.274906         1.636930        -2.590517
 O        -2.153608         0.408224        -1.849659
 C        -0.852234         0.078527        -1.182550
 H         0.933232         0.672300         0.970004
 H        -3.072996        -0.050424         0.305086
 H        -2.358325         0.193417         2.065867
 H        -1.165980         2.144155         1.649392
 H        -1.757198         3.955970         0.089211
 H        -2.081215         3.780524        -2.029640
 H        -3.285784         1.637528        -2.916386
 H        -1.745647         1.634901        -3.534954
 H        -0.550670        -0.981968        -1.381024
 H         0.054120         0.574984        -1.706112
