19
Iteration:  4307charge 0 multiplicity 1
 O         0.112889        -0.028645         1.011489
 C        -0.911033         0.506690         0.266920
 C        -2.121003         0.693428         1.112784
 C        -1.402209         1.941925         0.584487
 C        -2.195876         2.891801        -0.281364
 C        -2.486173         2.757187        -1.544122
 C        -1.864836         1.691268        -2.448559
 O        -2.037186         0.352558        -2.050979
 C        -1.014343        -0.081871        -1.123407
 H         1.059566         0.083096         0.679285
 H        -3.123710         0.447133         0.666415
 H        -2.016462         0.527613         2.205560
 H        -0.756307         2.330521         1.350833
 H        -2.818152         3.502007         0.432224
 H        -3.202063         3.463003        -2.038175
 H        -2.315582         1.802149        -3.463056
 H        -0.738555         1.873177        -2.503016
 H        -1.182126        -1.206411        -0.770271
 H         0.009781         0.110759        -1.513413
