19
Iteration:  1708charge 0 multiplicity 1
 O         0.142650        -0.092155         1.009644
 C        -0.906888         0.492912         0.290190
 C        -2.366731         0.659073         0.877466
 C        -1.624995         1.969349         0.788548
 C        -1.867348         3.076191        -0.228754
 C        -2.185146         2.822393        -1.582594
 C        -2.425341         1.498959        -2.320345
 O        -1.892286         0.174267        -1.980309
 C        -0.775529         0.101477        -1.213920
 H         0.844636         0.500395         0.903338
 H        -3.223640         0.575685         0.114058
 H        -2.385705         0.106240         1.873329
 H        -1.221939         2.367803         1.682544
 H        -1.725055         4.112001        -0.026055
 H        -2.313413         3.686782        -2.221679
 H        -3.606715         1.292842        -2.453582
 H        -2.056666         1.576639        -3.403822
 H        -0.295238        -0.929689        -1.341951
 H        -0.007395         0.861875        -1.694846
