19
Iteration:  1856charge 0 multiplicity 1
 O         0.223239         0.086312         0.994793
 C        -0.996669         0.468088         0.329687
 C        -2.284710         0.652100         1.127786
 C        -1.434427         1.860367         0.662311
 C        -1.972078         2.813830        -0.293464
 C        -2.463694         2.737890        -1.494821
 C        -1.950564         1.666044        -2.518569
 O        -2.069255         0.355473        -2.061524
 C        -1.016457        -0.039528        -1.169503
 H         0.923072         0.790853         0.855928
 H        -3.276706         0.539660         0.657675
 H        -2.038022         0.464426         2.196069
 H        -0.805448         2.333743         1.415448
 H        -2.055850         3.819024         0.121664
 H        -3.029982         3.509602        -1.915637
 H        -2.511493         1.730414        -3.408473
 H        -0.868103         1.969562        -2.723075
 H        -1.171460        -1.199581        -1.070998
 H        -0.025037        -0.016299        -1.563614
