19
Iteration:  4150charge 0 multiplicity 1
 O         0.051803        -0.134426         1.101241
 C        -0.888054         0.572750         0.299714
 C        -2.240719         0.749460         1.070241
 C        -1.370869         1.935503         0.673925
 C        -2.063652         2.881078        -0.259170
 C        -2.421774         2.683217        -1.520951
 C        -2.101108         1.648827        -2.570035
 O        -2.033587         0.291211        -2.038996
 C        -0.790366         0.111954        -1.171301
 H         0.961064        -0.007906         0.893616
 H        -3.144349         0.513895         0.516388
 H        -2.134578         0.498618         2.116441
 H        -0.872060         2.378367         1.571352
 H        -2.423494         3.878378         0.231584
 H        -3.143323         3.395022        -2.144653
 H        -2.957618         1.413455        -3.208077
 H        -1.309723         1.869902        -3.301112
 H        -0.634526        -0.938746        -1.013960
 H         0.070301         0.411908        -1.701995
