19
Iteration:  4063charge 0 multiplicity 1
 O         0.180537         0.011529         1.100289
 C        -0.930693         0.493470         0.287356
 C        -2.348401         0.465586         0.858004
 C        -1.646079         1.854395         0.684081
 C        -1.853570         2.902520        -0.319896
 C        -2.062945         2.793333        -1.616315
 C        -2.350981         1.508981        -2.466641
 O        -2.062728         0.323128        -1.795529
 C        -0.782681         0.245323        -1.224686
 H         0.850087         0.801186         1.085494
 H        -3.147673        -0.034578         0.310098
 H        -2.353069         0.249954         1.933686
 H        -1.383814         2.312115         1.677403
 H        -1.959513         3.871257         0.284414
 H        -2.144651         3.841254        -2.183764
 H        -3.416740         1.621514        -2.678498
 H        -1.856388         1.671616        -3.416714
 H        -0.606031        -0.903345        -1.342800
 H         0.026052         0.961893        -1.739908
