19
Iteration:  2977
 O         0.288939        -0.006863         0.991661
 C        -0.986687         0.473698         0.314259
 C        -2.306873         0.560169         0.956162
 C        -1.517592         1.821097         0.639083
 C        -2.024597         2.824867        -0.332906
 C        -2.249494         2.830085        -1.666387
 C        -2.156131         1.639411        -2.502349
 O        -2.103334         0.365089        -1.809814
 C        -0.847481         0.104774        -1.070507
 H         0.723348         0.840067         0.910295
 H        -3.229190         0.131489         0.482808
 H        -2.217825         0.426901         2.090684
 H        -1.169959         2.276878         1.516875
 H        -2.221745         3.845621         0.219679
 H        -2.397115         3.830438        -2.205103
 H        -3.063892         1.577098        -3.027212
 H        -1.277003         1.710547        -3.196441
 H        -0.913326        -1.017587        -0.997906
 H         0.051308         0.510587        -1.527303
