19
Iteration:   556
 O         0.238734         0.158146         1.008054
 C        -0.919230         0.502384         0.336690
 C        -2.224051         0.229480         0.978109
 C        -1.648866         1.798421         0.610465
 C        -1.815545         2.860543        -0.426104
 C        -2.237961         2.957081        -1.689673
 C        -2.307149         1.625096        -2.481837
 O        -2.080229         0.432279        -1.740906
 C        -0.870827         0.108938        -1.160181
 H        -0.063259        -0.016085         1.965061
 H        -3.112989        -0.106057         0.426958
 H        -2.221997         0.212299         2.067139
 H        -1.403607         2.136507         1.582169
 H        -1.654582         3.771274         0.089065
 H        -2.438449         3.834777        -2.274838
 H        -3.171788         1.297755        -3.146319
 H        -1.305485         1.651622        -3.091000
 H        -0.728098        -0.994597        -1.118494
 H         0.037809         0.710213        -1.562998
