19
Iteration:  3026
 O         0.140813         0.176830         0.953950
 C        -0.958034         0.587278         0.196686
 C        -2.126143         0.566245         1.153405
 C        -1.547445         1.840913         0.668515
 C        -2.096638         2.879973        -0.218656
 C        -2.211359         2.846647        -1.559311
 C        -1.918350         1.603313        -2.396319
 O        -2.107176         0.295265        -2.020574
 C        -1.098046        -0.162781        -1.171059
 H         0.934187         0.703194         0.579749
 H        -3.102932         0.341285         0.764586
 H        -1.979932         0.217494         2.111487
 H        -0.918577         2.413424         1.456654
 H        -2.465063         3.690569         0.288045
 H        -2.528931         3.710402        -2.046438
 H        -2.624300         1.728827        -3.424891
 H        -0.851426         1.700600        -2.688026
 H        -1.169542        -1.216962        -1.048305
 H        -0.179552         0.138115        -1.785088
