19
Iteration:   749
 O         0.323536         0.282357         0.848788
 C        -0.983654         0.532922         0.256927
 C        -2.229597         0.538464         1.115952
 C        -1.499999         1.895450         0.677295
 C        -2.149623         2.797586        -0.230202
 C        -2.087565         2.807149        -1.566798
 C        -1.925256         1.654646        -2.468363
 O        -2.104302         0.341552        -1.953058
 C        -1.212284        -0.257304        -1.092259
 H         0.553138         1.152039         1.151037
 H        -3.068520         0.219837         0.505199
 H        -2.211456         0.037811         2.109602
 H        -0.874379         2.387384         1.443158
 H        -2.584925         3.723509         0.087414
 H        -2.448482         3.745531        -1.992761
 H        -2.846270         1.827904        -3.057330
 H        -1.084868         1.823999        -3.067715
 H        -1.515471        -1.314781        -1.161841
 H        -0.178404        -0.290172        -1.441297
