19
Iteration:   652
 O         0.201914        -0.019608         1.140706
 C        -0.881041         0.512252         0.310370
 C        -2.144399         0.713573         1.014468
 C        -1.370916         1.925846         0.545654
 C        -2.135148         2.923104        -0.233472
 C        -2.548745         2.775133        -1.499133
 C        -2.014860         1.702070        -2.527608
 O        -1.968577         0.346227        -2.068482
 C        -1.048497        -0.110001        -1.117658
 H         0.841081        -0.499009         0.598052
 H        -3.027718         0.413163         0.424364
 H        -2.170070         0.509376         2.079826
 H        -0.817493         2.301126         1.388514
 H        -2.596434         3.637049         0.370971
 H        -3.205460         3.548029        -1.921491
 H        -2.670751         1.704603        -3.472643
 H        -0.957608         2.037137        -2.720824
 H        -1.186581        -1.221221        -0.984813
 H        -0.029600        -0.035246        -1.605648
