19
Iteration:  2209charge 0 multiplicity 1
 O         0.153492        -0.002685         0.926020
 C        -0.965427         0.542814         0.293754
 C        -2.291571         0.535714         1.042415
 C        -1.450935         1.894790         0.673398
 C        -2.062536         2.966891        -0.274692
 C        -2.231917         2.834673        -1.607178
 C        -2.097030         1.602498        -2.486462
 O        -2.027481         0.284022        -1.863635
 C        -0.894713         0.025624        -1.107044
 H         0.830623         0.762289         0.891790
 H        -3.034133         0.378901         0.306661
 H        -2.511131         0.168416         1.993227
 H        -0.891601         2.391178         1.439840
 H        -2.300406         3.926663         0.152578
 H        -2.874955         3.651951        -2.098833
 H        -3.035472         1.468088        -3.196669
 H        -1.257426         1.645333        -3.226945
 H        -0.852283        -1.096853        -0.879585
 H         0.028602         0.282205        -1.564923
