19
Iteration:  4369
 O         0.098157         0.011043         1.078640
 C        -0.983206         0.484829         0.252977
 C        -2.271570         0.569088         1.044584
 C        -1.344432         1.895037         0.666013
 C        -2.043667         2.910651        -0.277630
 C        -2.420003         2.824490        -1.549121
 C        -2.047147         1.635070        -2.494106
 O        -2.063061         0.264878        -1.997839
 C        -0.836011         0.024148        -1.138356
 H         0.971125         0.551248         0.897867
 H        -3.257793         0.669361         0.610568
 H        -2.224179         0.245995         2.072501
 H        -0.762613         2.281558         1.442043
 H        -2.278904         3.947343         0.285084
 H        -2.892348         3.645382        -1.970353
 H        -2.762537         1.629117        -3.322857
 H        -1.162080         1.858595        -3.110378
 H        -0.627217        -0.983048        -1.354784
 H        -0.031584         0.529866        -1.669415
