19
Iteration:  2128charge 0 multiplicity 1
 O         0.138593        -0.073976         1.039826
 C        -0.952687         0.488304         0.286949
 C        -2.314715         0.584093         0.979278
 C        -1.567748         1.901033         0.739958
 C        -1.923481         2.983368        -0.322284
 C        -2.131932         2.818547        -1.635196
 C        -2.450686         1.469293        -2.378169
 O        -1.923484         0.276395        -1.963734
 C        -0.792575         0.162111        -1.185970
 H         0.769356         0.697861         1.166850
 H        -3.284913         0.489752         0.450709
 H        -2.292113         0.350557         2.110561
 H        -1.139608         2.421604         1.611505
 H        -1.786602         4.041434        -0.035571
 H        -2.021243         3.633272        -2.279206
 H        -3.619442         1.415631        -2.637014
 H        -1.904919         1.728089        -3.318295
 H        -0.384367        -0.827967        -1.262113
 H         0.016007         0.836002        -1.616523
