19
Iteration:   839
 O         0.068975        -0.045875         1.114569
 C        -0.927438         0.474910         0.309673
 C        -2.198672         0.623578         1.039657
 C        -1.335318         1.940881         0.631333
 C        -2.075113         2.941993        -0.266291
 C        -2.343909         2.849178        -1.570082
 C        -2.222053         1.591531        -2.502692
 O        -2.011451         0.234790        -1.962171
 C        -0.817916         0.081870        -1.212430
 H         0.919696         0.203988         0.668363
 H        -3.113452         0.641781         0.396864
 H        -2.299390         0.373552         2.094994
 H        -0.838432         2.371171         1.499409
 H        -2.282515         3.865647         0.208780
 H        -2.971091         3.587428        -2.106837
 H        -3.256768         1.471079        -2.992529
 H        -1.416678         1.675351        -3.239335
 H        -0.430483        -1.002585        -1.234853
 H        -0.000292         0.655039        -1.655088
