19
Iteration:   181
 O         0.212879         0.132935         0.986720
 C        -0.971674         0.481677         0.283411
 C        -2.257626         0.389417         1.013992
 C        -1.504209         1.815195         0.637633
 C        -2.046624         2.911509        -0.227744
 C        -2.207606         2.843689        -1.615057
 C        -2.180544         1.636672        -2.485767
 O        -2.072259         0.370033        -1.885800
 C        -0.835786         0.145926        -1.150208
 H         0.356819        -0.806153         0.897401
 H        -3.141437         0.105371         0.426768
 H        -2.064206        -0.035169         2.005426
 H        -1.142592         2.140506         1.578062
 H        -2.259051         3.864400         0.218509
 H        -2.606628         3.735145        -2.086431
 H        -3.098529         1.658802        -3.128135
 H        -1.302981         1.793628        -3.096244
 H        -0.783666        -0.951945        -1.219630
 H         0.030624         0.687584        -1.461636
