19
Iteration:  3736
 O        -0.013259        -0.079041         1.113869
 C        -0.965893         0.517913         0.281733
 C        -2.273606         0.601202         0.983178
 C        -1.389379         1.937738         0.672676
 C        -1.853785         2.954339        -0.330370
 C        -2.484725         2.785296        -1.582861
 C        -2.305704         1.592193        -2.450092
 O        -1.877479         0.274348        -1.922838
 C        -0.666391         0.107896        -1.192754
 H         0.698247         0.397577         0.720033
 H        -3.157572         0.465532         0.351044
 H        -2.439151         0.107457         1.944156
 H        -0.928625         2.276904         1.494360
 H        -2.169767         3.903937         0.165727
 H        -2.905348         3.678119        -1.886766
 H        -3.325289         1.347799        -2.881915
 H        -1.787746         1.869580        -3.473038
 H        -0.330981        -0.964864        -1.203211
 H         0.062744         0.746692        -1.635926
