19
Iteration:  2822
 O         0.149200         0.037403         1.057609
 C        -0.901321         0.463629         0.302742
 C        -2.330753         0.498527         0.852545
 C        -1.537486         1.799804         0.667816
 C        -1.848000         2.968168        -0.333060
 C        -2.300941         2.839480        -1.618050
 C        -2.220279         1.522496        -2.474607
 O        -2.114666         0.289141        -1.776336
 C        -0.785651         0.204213        -1.130397
 H         0.869262         0.762069         0.992040
 H        -3.161360         0.346310         0.260759
 H        -2.410449         0.223289         1.875925
 H        -1.102920         2.172637         1.662718
 H        -1.623054         3.942147         0.026891
 H        -2.694998         3.636421        -2.154221
 H        -3.117517         1.456839        -3.112059
 H        -1.500126         1.770976        -3.159739
 H        -0.522096        -0.896802        -1.255079
 H        -0.013409         0.717997        -1.610596
