19
Iteration:  2964charge 0 multiplicity 1
 O         0.169480        -0.012325         1.057093
 C        -0.898648         0.492165         0.330574
 C        -2.256409         0.461975         1.032147
 C        -1.544551         1.874729         0.581730
 C        -2.036699         2.946395        -0.300956
 C        -2.197011         2.844140        -1.658409
 C        -2.229685         1.584894        -2.526492
 O        -2.078002         0.387200        -1.794332
 C        -0.830108         0.048623        -1.173858
 H         0.983829         0.581241         1.191539
 H        -3.111244         0.268540         0.386989
 H        -2.337714         0.222757         2.051808
 H        -1.096987         2.321158         1.473189
 H        -2.047213         3.986494         0.106952
 H        -2.645202         3.713738        -2.134038
 H        -3.102896         1.484871        -3.038669
 H        -1.521592         1.663327        -3.391542
 H        -0.446257        -0.983726        -1.380494
 H        -0.036893         0.623414        -1.656723
