19
Iteration:   475charge 0 multiplicity 1
 O         0.123782        -0.049655         0.924025
 C        -1.049573         0.499181         0.300325
 C        -2.328748         0.739047         1.121608
 C        -1.432461         1.865136         0.693949
 C        -1.921781         2.861338        -0.306558
 C        -2.448320         2.718955        -1.503311
 C        -2.286991         1.564540        -2.440596
 O        -1.833169         0.281864        -2.049163
 C        -0.744474         0.157028        -1.205022
 H         0.184267         0.202593         1.833701
 H        -3.327101         0.524887         0.724838
 H        -2.218901         0.383133         2.138251
 H        -0.903839         2.376181         1.527063
 H        -1.837930         3.882229         0.174115
 H        -2.530140         3.585858        -2.190358
 H        -3.302770         1.495519        -2.932360
 H        -1.726401         1.996800        -3.356917
 H        -0.373358        -0.856745        -1.086616
 H         0.125533         0.741091        -1.541830
