19
Iteration:  1716charge 0 multiplicity 1
 O         0.130626        -0.087855         0.997425
 C        -0.953510         0.538251         0.294401
 C        -2.326279         0.643295         0.868996
 C        -1.592712         1.975611         0.754408
 C        -1.919872         3.035674        -0.277461
 C        -2.102416         2.831565        -1.542772
 C        -2.397756         1.548455        -2.326357
 O        -1.948133         0.111501        -1.976066
 C        -0.755193         0.131424        -1.212005
 H         0.798748         0.569077         1.057926
 H        -3.054491         0.162969         0.198363
 H        -2.440899         0.169085         1.840484
 H        -1.340828         2.363943         1.757872
 H        -1.799909         4.108855        -0.005923
 H        -2.390201         3.636264        -2.141543
 H        -3.514741         1.406069        -2.202237
 H        -2.167817         1.726611        -3.364479
 H        -0.356230        -0.826067        -1.289669
 H         0.110451         0.761829        -1.680574
