19
Iteration:  2435charge 0 multiplicity 1
 O         0.136417         0.107085         1.126059
 C        -0.904048         0.423606         0.290347
 C        -2.303291         0.568887         0.887877
 C        -1.437743         1.788086         0.607024
 C        -1.967663         2.903601        -0.302398
 C        -2.292845         2.800771        -1.592363
 C        -2.248995         1.612503        -2.474597
 O        -2.083181         0.353113        -1.788086
 C        -0.764440         0.090640        -1.176295
 H         0.920413         0.590243         0.810485
 H        -2.967951         0.266940         0.124434
 H        -2.617179         0.213035         1.873746
 H        -0.824108         2.082225         1.396231
 H        -2.111758         3.845726         0.250752
 H        -2.658482         3.642441        -2.188768
 H        -3.200714         1.466817        -3.018172
 H        -1.520900         1.674635        -3.346908
 H        -0.697055        -1.005852        -1.276966
 H         0.039800         0.523734        -1.671777
