19
Iteration:  1472
 O         0.147679         0.059702         1.085251
 C        -0.958735         0.503447         0.222789
 C        -2.146959         0.738178         1.126226
 C        -1.341277         1.987804         0.620146
 C        -2.156270         2.927936        -0.201544
 C        -2.442004         2.762479        -1.441838
 C        -1.879118         1.673808        -2.410190
 O        -2.008921         0.250775        -2.170108
 C        -1.121411        -0.223479        -1.232886
 H         1.038549         0.184222         0.572084
 H        -3.090934         0.814407         0.523815
 H        -2.182471         0.498737         2.257296
 H        -0.622217         2.484457         1.245249
 H        -2.729736         3.658590         0.358616
 H        -3.288078         3.462467        -1.780365
 H        -2.482252         1.951634        -3.390006
 H        -0.844948         1.842275        -2.607830
 H        -1.221371        -1.271502        -1.219680
 H        -0.061679        -0.118440        -1.574513
