19
Iteration:  4918charge 0 multiplicity 1
 O         0.129544        -0.137142         0.994033
 C        -0.927843         0.560502         0.282083
 C        -2.322960         0.639798         0.998314
 C        -1.426441         1.966439         0.755828
 C        -1.942035         2.933283        -0.268758
 C        -2.384463         2.730635        -1.537597
 C        -2.177784         1.561163        -2.417274
 O        -1.975473         0.280345        -2.007861
 C        -0.832664         0.162270        -1.185148
 H         0.908777         0.343040         0.837863
 H        -3.213217         0.504978         0.359117
 H        -2.547523         0.217738         1.981436
 H        -1.005259         2.473349         1.673365
 H        -2.428686         3.847817         0.089960
 H        -2.884766         3.535350        -1.942910
 H        -2.835718         1.498244        -3.292618
 H        -1.210418         1.790424        -2.960151
 H        -0.853873        -0.921482        -1.138039
 H        -0.033851         0.681023        -1.692381
