19
Iteration:   697
 O         0.201487        -0.057849         0.920574
 C        -0.975699         0.469218         0.304241
 C        -2.134300         0.679645         1.212230
 C        -1.385508         1.884058         0.561167
 C        -2.247387         2.859309        -0.282772
 C        -2.422166         2.785658        -1.591171
 C        -1.833165         1.664565        -2.449276
 O        -2.149251         0.335027        -1.967969
 C        -0.980467        -0.003532        -1.180064
 H         0.652414         0.771374         1.165221
 H        -3.194049         0.656616         1.006821
 H        -1.946352         0.719299         2.302316
 H        -0.726758         2.382935         1.231659
 H        -2.656276         3.668498         0.217757
 H        -3.069542         3.457468        -2.107701
 H        -2.239252         1.830494        -3.526260
 H        -0.694344         1.799278        -2.382499
 H        -1.050769        -1.145515        -1.222001
 H         0.013842         0.267384        -1.604185
