19
Iteration:  2619charge 0 multiplicity 1
 O         0.194645         0.048860         0.938191
 C        -0.968566         0.573577         0.305091
 C        -2.172821         0.561011         1.116510
 C        -1.553877         1.967594         0.772950
 C        -2.079136         2.904842        -0.259994
 C        -2.233523         2.696849        -1.548993
 C        -1.995365         1.621751        -2.566533
 O        -2.091960         0.302254        -2.008664
 C        -1.027010        -0.013311        -1.115158
 H         0.997678         0.664282         0.780869
 H        -3.016758         0.167732         0.618836
 H        -2.078412         0.346589         2.114123
 H        -0.903277         2.420811         1.396415
 H        -2.693181         3.734751         0.092678
 H        -2.592545         3.568506        -2.081147
 H        -2.740043         1.767048        -3.360472
 H        -0.972287         1.843945        -3.082650
 H        -1.130791        -1.080433        -0.974221
 H         0.032689         0.118014        -1.600309
