19
Iteration:  1449charge 0 multiplicity 1
 O         0.155980        -0.028363         0.977075
 C        -0.984266         0.523619         0.294086
 C        -2.231400         0.742576         1.112374
 C        -1.341760         1.911564         0.632677
 C        -2.050283         2.877935        -0.259693
 C        -2.503987         2.684640        -1.492306
 C        -1.954786         1.708361        -2.541454
 O        -2.011385         0.321997        -2.067454
 C        -1.003401        -0.072354        -1.060624
 H         0.872144         0.311501         0.480276
 H        -3.144298         0.558798         0.530456
 H        -2.126661         0.465442         2.211897
 H        -0.903109         2.430722         1.457301
 H        -2.294234         3.738369         0.354598
 H        -3.183348         3.464934        -1.868570
 H        -2.497048         1.776255        -3.557673
 H        -0.952653         2.076930        -2.697186
 H        -1.100502        -1.132117        -1.021256
 H         0.039222         0.009863        -1.445586
