19
Iteration:  4938charge 0 multiplicity 1
 O         0.004721        -0.097413         1.069838
 C        -0.907913         0.472928         0.285337
 C        -2.193141         0.687495         0.988141
 C        -1.340605         1.882861         0.604863
 C        -2.022594         2.886736        -0.221607
 C        -2.511350         2.707292        -1.503755
 C        -2.098324         1.701525        -2.573865
 O        -2.006177         0.327754        -1.935535
 C        -0.809262         0.084303        -1.135062
 H         0.852952         0.461903         1.008379
 H        -3.089091         0.479677         0.463012
 H        -2.152797         0.382141         1.970298
 H        -0.885102         2.377993         1.455414
 H        -2.173727         3.874259         0.320783
 H        -3.088872         3.520201        -1.921292
 H        -2.892223         1.529543        -3.451660
 H        -1.137339         1.924117        -3.238179
 H        -0.591737        -1.089684        -1.150671
 H        -0.038861         0.687584        -1.706420
