19
Iteration:   837charge 0 multiplicity 1
 O         0.092999        -0.048775         1.107756
 C        -0.921292         0.468339         0.342968
 C        -2.189705         0.635834         1.030959
 C        -1.353545         1.928125         0.623548
 C        -2.094008         2.944046        -0.278673
 C        -2.328309         2.841535        -1.575380
 C        -2.221869         1.602624        -2.487550
 O        -2.018372         0.238515        -1.967343
 C        -0.820209         0.085371        -1.206915
 H         0.891028         0.137918         0.656934
 H        -3.105470         0.702740         0.399572
 H        -2.333172         0.396997         2.089776
 H        -0.890254         2.343327         1.482448
 H        -2.357535         3.812406         0.215262
 H        -2.934312         3.587013        -2.088236
 H        -3.194930         1.548501        -2.991259
 H        -1.414300         1.593245        -3.262832
 H        -0.500066        -0.980677        -1.222519
 H        -0.020388         0.664870        -1.684920
