19
Iteration:  3685charge 0 multiplicity 1
 O        -0.012600        -0.114883         1.108056
 C        -0.861009         0.585427         0.257750
 C        -2.232170         0.502146         0.837802
 C        -1.544082         1.916848         0.805465
 C        -1.902360         3.003190        -0.301501
 C        -2.113418         2.778903        -1.626684
 C        -2.479629         1.438714        -2.477187
 O        -1.997896         0.214305        -1.880483
 C        -0.662515         0.332482        -1.180192
 H         0.799160         0.394692         1.179576
 H        -3.172097         0.517851         0.257281
 H        -2.438698         0.015993         1.783168
 H        -1.078136         2.235087         1.823538
 H        -1.722565         4.107999         0.045463
 H        -2.511821         3.763155        -2.047827
 H        -3.581447         1.348500        -2.606868
 H        -2.201926         1.668530        -3.562190
 H        -0.179706        -0.599361        -1.401586
 H        -0.014783         1.169852        -1.668996
