19
Iteration:  4579charge 0 multiplicity 1
 O         0.120849         0.020687         1.037307
 C        -0.948784         0.483042         0.292935
 C        -2.205669         0.583351         1.019597
 C        -1.455031         1.886834         0.596476
 C        -2.094827         2.834918        -0.310932
 C        -2.415504         2.843107        -1.602965
 C        -2.049634         1.768402        -2.448532
 O        -2.016360         0.369538        -1.897550
 C        -0.839764        -0.115230        -1.133582
 H         0.857926         0.483079         0.709245
 H        -3.105660         0.271959         0.505304
 H        -2.193750         0.362450         2.079365
 H        -0.871302         2.351911         1.401126
 H        -2.459016         3.815166         0.307317
 H        -3.021649         3.647589        -2.145083
 H        -2.749352         1.669352        -3.273487
 H        -1.089407         2.024295        -3.051856
 H        -0.919489        -1.195765        -0.979413
 H         0.174880        -0.167280        -1.519388
