19
Iteration:  3969
 O         0.114504         0.011824         0.992531
 C        -1.001229         0.468112         0.218314
 C        -2.248749         0.610531         1.044238
 C        -1.493265         1.890382         0.611860
 C        -2.050316         2.901941        -0.271417
 C        -2.363243         2.801193        -1.542585
 C        -1.995544         1.639114        -2.444991
 O        -2.023574         0.336832        -1.870754
 C        -0.862773        -0.022208        -1.173814
 H         0.845908         0.558374         0.754887
 H        -3.154309         0.348513         0.519362
 H        -2.218076         0.313743         2.081737
 H        -0.794839         2.398992         1.345609
 H        -2.297207         3.923565         0.274646
 H        -3.039959         3.520213        -1.907856
 H        -2.688517         1.640185        -3.323284
 H        -0.942608         1.862695        -2.899377
 H        -0.881228        -1.102624        -1.124087
 H         0.079615         0.403632        -1.743996
