19
Iteration:  3735
 O        -0.020135        -0.076472         1.113718
 C        -0.967727         0.514653         0.290235
 C        -2.280765         0.601134         0.978325
 C        -1.380003         1.935795         0.677876
 C        -1.840957         2.958285        -0.326458
 C        -2.499523         2.780449        -1.585726
 C        -2.312212         1.594057        -2.452074
 O        -1.883035         0.274765        -1.923013
 C        -0.657560         0.109965        -1.192535
 H         0.731276         0.414043         0.689916
 H        -3.150728         0.466023         0.341281
 H        -2.468224         0.093608         1.931136
 H        -0.926016         2.292067         1.501201
 H        -2.137001         3.878659         0.150281
 H        -2.887503         3.673187        -1.890573
 H        -3.308330         1.351642        -2.864004
 H        -1.787811         1.848675        -3.500695
 H        -0.256092        -0.972618        -1.220222
 H         0.095506         0.762730        -1.635613
