19
Iteration:  4128
 O        -0.024650        -0.081431         1.111834
 C        -1.028173         0.470905         0.285656
 C        -2.212002         0.742691         0.996674
 C        -1.324398         1.958351         0.657864
 C        -1.975252         2.863246        -0.295444
 C        -2.468499         2.738588        -1.494062
 C        -2.198848         1.564498        -2.426895
 O        -1.913388         0.258041        -1.997808
 C        -0.781582         0.147838        -1.226304
 H         0.862444         0.031220         0.625758
 H        -3.084840         0.798105         0.347114
 H        -2.293759         0.233289         1.960295
 H        -0.631462         2.438660         1.414505
 H        -2.252201         3.829130         0.324279
 H        -2.965679         3.692830        -2.122238
 H        -3.007871         1.232211        -3.129265
 H        -1.321328         1.907733        -3.195604
 H        -0.232786        -0.800103        -1.228183
 H        -0.018093         0.887115        -1.561890
