19
Iteration:  3159charge 0 multiplicity 1
 O         0.237743         0.057330         0.989625
 C        -0.939036         0.542362         0.295536
 C        -2.257822         0.530679         1.082963
 C        -1.499805         1.891697         0.709138
 C        -2.017684         2.947450        -0.227344
 C        -2.352916         2.803376        -1.540332
 C        -1.952367         1.706014        -2.608246
 O        -2.096729         0.305923        -2.020148
 C        -1.015640        -0.106271        -1.091840
 H         0.979710         0.420074         0.492433
 H        -3.178210         0.126250         0.664215
 H        -2.049071         0.465998         2.168907
 H        -1.112485         2.336970         1.633909
 H        -2.450644         3.872589         0.185675
 H        -2.989981         3.729731        -1.872734
 H        -2.795586         1.625910        -3.433195
 H        -0.910868         1.750367        -2.985369
 H        -1.153516        -1.177538        -0.981213
 H         0.014542         0.172560        -1.601759
