19
Iteration:  1341
 O         0.278906         0.072400         1.058522
 C        -0.993946         0.528276         0.290227
 C        -2.369495         0.472488         0.865957
 C        -1.649436         1.875565         0.716934
 C        -1.847524         3.037656        -0.223004
 C        -1.960881         2.725364        -1.586548
 C        -2.388127         1.506004        -2.377801
 O        -2.081002         0.237303        -1.907541
 C        -0.857664         0.140572        -1.245363
 H         0.727308         0.928863         0.975927
 H        -3.227234         0.114966         0.253836
 H        -2.614221         0.168316         1.892518
 H        -1.153628         2.229557         1.622812
 H        -1.703715         4.089267        -0.009690
 H        -1.999291         3.527731        -2.317570
 H        -3.533807         1.653134        -2.490706
 H        -1.933498         1.736636        -3.464185
 H        -0.533197        -0.861556        -1.305738
 H        -0.198878         0.936136        -1.628801
