19
Iteration:  3955charge 0 multiplicity 1
 O         0.112896        -0.025015         1.057355
 C        -0.937777         0.460495         0.314018
 C        -2.217002         0.708806         1.038981
 C        -1.330707         1.896363         0.664921
 C        -2.076517         2.843408        -0.269678
 C        -2.537361         2.789314        -1.594032
 C        -1.965575         1.714294        -2.479120
 O        -2.052375         0.312047        -1.979116
 C        -0.923481        -0.034209        -1.187692
 H         0.937598         0.402946         0.692216
 H        -3.122369         0.707620         0.407197
 H        -2.278273         0.292030         2.047197
 H        -0.759480         2.290544         1.534477
 H        -2.578787         3.754026         0.356484
 H        -3.171998         3.643918        -2.052433
 H        -2.371394         1.623474        -3.520802
 H        -0.788902         1.941377        -2.523156
 H        -0.818585        -1.193392        -1.182841
 H         0.025528         0.317584        -1.635265
