19
Iteration:   606charge 0 multiplicity 1
 O         0.173348         0.215402         0.864746
 C        -1.009109         0.558552         0.263960
 C        -2.299703         0.605526         1.054506
 C        -1.484972         1.856049         0.694173
 C        -2.047963         2.793470        -0.190706
 C        -2.179485         2.718686        -1.539675
 C        -2.004600         1.594101        -2.483282
 O        -2.133082         0.304508        -1.914659
 C        -0.865222         0.072464        -1.144037
 H         0.204788        -0.710497         0.975846
 H        -3.155143         0.403495         0.412279
 H        -2.246977         0.034477         1.983177
 H        -0.853932         2.275398         1.542791
 H        -2.372997         3.784461         0.283177
 H        -2.627446         3.628658        -2.064371
 H        -2.988672         1.621564        -3.020630
 H        -1.150232         1.643679        -3.224610
 H        -0.540144        -1.006730        -1.048065
 H        -0.034614         0.549461        -1.678761
