19
Iteration:  2682charge 0 multiplicity 1
 O         0.195102         0.090007         0.972650
 C        -0.952484         0.502720         0.284492
 C        -2.109629         0.630028         1.152710
 C        -1.424505         1.926117         0.577864
 C        -2.178411         2.765321        -0.347990
 C        -2.447556         2.796551        -1.635066
 C        -1.814715         1.741129        -2.373209
 O        -2.090269         0.388365        -1.956575
 C        -1.127324        -0.140560        -1.121811
 H         0.946538         0.188216         0.296251
 H        -3.017164         0.326258         0.697525
 H        -1.984082         0.475874         2.166706
 H        -0.845136         2.404142         1.330286
 H        -2.601195         3.524719         0.273351
 H        -3.237131         3.370160        -2.022477
 H        -1.859889         1.722009        -3.478168
 H        -0.779032         1.854579        -2.127772
 H        -1.377102        -1.185688        -1.024785
 H        -0.086946        -0.064556        -1.592043
