19
Iteration:  2778
 O         0.225138         0.052543         1.079002
 C        -0.957246         0.547201         0.274317
 C        -2.208834         0.545849         1.136952
 C        -1.528565         1.882381         0.664762
 C        -2.201426         2.861109        -0.234839
 C        -2.142032         2.882717        -1.643530
 C        -2.074342         1.605167        -2.596139
 O        -2.105616         0.323217        -1.951166
 C        -0.949873        -0.000640        -1.150904
 H         1.074537         0.229326         0.536379
 H        -3.079299         0.281417         0.556399
 H        -2.172050         0.193731         2.141980
 H        -0.823947         2.373796         1.427658
 H        -2.425484         3.776439         0.312940
 H        -2.466767         3.816312        -1.967469
 H        -2.945715         1.571056        -3.276078
 H        -1.247258         1.590703        -3.301659
 H        -0.832278        -1.088801        -1.022960
 H        -0.064371         0.279370        -1.633134
