19
Iteration:  1812charge 0 multiplicity 1
 O         0.141602        -0.034356         1.003542
 C        -0.895850         0.586414         0.187397
 C        -2.235971         0.661823         1.013714
 C        -1.581429         1.864995         0.684861
 C        -2.129519         2.845917        -0.238145
 C        -2.139971         2.810940        -1.596591
 C        -2.179053         1.584144        -2.485643
 O        -2.046752         0.351707        -1.805774
 C        -0.865448         0.046925        -1.192498
 H         0.988910         0.362900         0.649043
 H        -3.070768         0.285237         0.436500
 H        -2.130701         0.209384         1.984427
 H        -1.102101         2.339644         1.562077
 H        -2.278295         3.835738         0.218632
 H        -2.207855         3.683541        -2.203193
 H        -3.108629         1.508810        -2.982682
 H        -1.314815         1.603590        -3.267128
 H        -0.754502        -1.138856        -1.007054
 H        -0.030221         0.338526        -1.802838
