19
Iteration:   806
 O         0.252820         0.009724         0.971376
 C        -0.930189         0.578145         0.354689
 C        -2.238927         0.512818         1.076823
 C        -1.534193         1.885749         0.710654
 C        -2.101563         2.873205        -0.310784
 C        -2.285461         2.792942        -1.698016
 C        -2.038108         1.614893        -2.610400
 O        -2.102253         0.420714        -1.773911
 C        -0.932360         0.020339        -1.114336
 H         0.960971        -0.051582         0.245905
 H        -3.173193         0.330151         0.495099
 H        -2.248205         0.207686         2.124324
 H        -1.154773         2.333023         1.606168
 H        -2.145680         3.838057         0.057708
 H        -2.693011         3.728377        -2.076707
 H        -2.833865         1.567005        -3.437018
 H        -1.135828         1.545542        -3.167567
 H        -1.019214        -1.111783        -0.981255
 H        -0.050689         0.313437        -1.697489
