19
Iteration:  1091charge 0 multiplicity 1
 O         0.192737        -0.027307         0.960060
 C        -0.899315         0.556663         0.317077
 C        -2.117266         0.800249         1.179350
 C        -1.432001         1.988989         0.587403
 C        -2.240842         2.823913        -0.167763
 C        -2.460110         2.751307        -1.525027
 C        -1.814374         1.678557        -2.439761
 O        -2.059903         0.295525        -2.150125
 C        -1.129382        -0.145937        -1.130661
 H         0.992768         0.258887         0.398005
 H        -3.026105         0.552954         0.631598
 H        -1.972667         0.442875         2.183466
 H        -0.826975         2.452690         1.416146
 H        -2.649277         3.716890         0.381013
 H        -3.026503         3.435611        -2.127743
 H        -2.115119         1.885842        -3.419835
 H        -0.674558         1.796591        -2.481702
 H        -1.459047        -1.227873        -0.982108
 H        -0.067377        -0.132635        -1.587566
