19
Iteration:  2054
 O         0.066722        -0.076301         1.209109
 C        -0.883677         0.522700         0.258374
 C        -2.164808         0.533509         0.927968
 C        -1.451293         1.856000         0.605733
 C        -1.955316         2.975741        -0.348937
 C        -2.282481         2.842195        -1.656680
 C        -2.304605         1.570546        -2.425807
 O        -2.049661         0.310507        -1.840046
 C        -0.787801         0.172117        -1.230518
 H         0.908447         0.236731         0.943640
 H        -3.081968         0.109663         0.408797
 H        -2.049495         0.284192         2.038173
 H        -1.216252         2.340337         1.567864
 H        -2.468867         3.832072         0.131135
 H        -2.732191         3.592699        -2.358290
 H        -3.350398         1.585762        -2.781752
 H        -1.516407         1.855700        -3.302023
 H        -0.718811        -0.982345        -1.182741
 H         0.101161         0.639716        -1.700875
