19
Iteration:  4503charge 0 multiplicity 1
 O         0.040048        -0.124323         0.998554
 C        -0.954591         0.483526         0.294726
 C        -2.256525         0.636064         1.072458
 C        -1.465822         1.931603         0.689163
 C        -2.014868         2.917019        -0.303366
 C        -2.299483         2.779617        -1.591099
 C        -2.241922         1.582192        -2.468780
 O        -1.920475         0.296253        -1.949320
 C        -0.763494         0.135757        -1.190295
 H         0.787690         0.554860         1.164153
 H        -3.163450         0.586732         0.449068
 H        -2.413478         0.327270         2.126121
 H        -0.949126         2.379949         1.577588
 H        -2.040528         4.100516         0.058442
 H        -2.749171         3.658657        -2.184865
 H        -3.288929         1.349168        -2.721047
 H        -1.629808         1.787782        -3.342369
 H        -0.508352        -0.889471        -1.250128
 H         0.189839         0.711345        -1.477109
