19
Iteration:  4819
 O         0.205766         0.026818         0.978682
 C        -0.960335         0.490174         0.287288
 C        -2.268865         0.408840         0.897567
 C        -1.619378         1.844738         0.707057
 C        -1.965524         2.909765        -0.282619
 C        -2.063822         2.812446        -1.645137
 C        -2.216369         1.547707        -2.537627
 O        -2.096256         0.370803        -1.733004
 C        -0.909590         0.203740        -1.096874
 H         0.676128         0.802592         1.072610
 H        -3.108279         0.190095         0.307192
 H        -2.327106         0.079630         1.880387
 H        -1.332227         2.222334         1.664626
 H        -1.757593         3.952570         0.124438
 H        -2.500998         3.638853        -2.097389
 H        -3.122263         1.445634        -3.119762
 H        -1.439672         1.587800        -3.399194
 H        -0.586909        -0.836430        -1.455630
 H        -0.021104         0.860834        -1.632352
