19
Iteration:  3296
 O         0.017786        -0.147049         1.055108
 C        -0.922016         0.589953         0.265713
 C        -2.340940         0.617421         0.896441
 C        -1.514081         1.944528         0.732882
 C        -1.864612         2.939362        -0.305305
 C        -2.203060         2.765925        -1.539771
 C        -2.375622         1.510263        -2.338912
 O        -1.957167         0.187357        -1.933667
 C        -0.707206         0.281038        -1.253841
 H         0.886566         0.390590         1.150539
 H        -3.125966         0.467143         0.166928
 H        -2.333687         0.152390         1.859582
 H        -1.039537         2.211617         1.763742
 H        -1.871107         3.990273        -0.053427
 H        -2.501640         3.644329        -2.074528
 H        -3.521534         1.393345        -2.567539
 H        -1.997959         1.741150        -3.355813
 H        -0.073614        -0.654990        -1.432375
 H        -0.075235         1.143046        -1.660062
