19
Iteration:  3440charge 0 multiplicity 1
 O         0.200586         0.126260         0.936251
 C        -1.003664         0.439072         0.184855
 C        -2.144769         0.529916         1.266828
 C        -1.536451         1.859718         0.520641
 C        -2.296662         2.872592        -0.268785
 C        -2.228188         2.872033        -1.564153
 C        -1.782864         1.691719        -2.434556
 O        -2.096133         0.443776        -1.929760
 C        -1.067565        -0.205458        -1.148679
 H         0.935826         0.604663         0.496896
 H        -3.114036         0.174847         0.925020
 H        -1.727409         0.235767         2.258221
 H        -0.791038         2.352524         1.141549
 H        -2.807122         3.719310         0.253708
 H        -2.679865         3.749721        -2.163700
 H        -2.483450         1.860866        -3.309621
 H        -0.698144         1.667371        -2.652884
 H        -1.358121        -1.227488        -0.902354
 H        -0.045742        -0.049915        -1.604169
