19
Iteration:  1456charge 0 multiplicity 1
 O         0.162929         0.011436         1.010965
 C        -1.010197         0.485925         0.345209
 C        -2.211733         0.753545         1.095733
 C        -1.280299         1.916052         0.654319
 C        -2.076202         2.931640        -0.215633
 C        -2.507188         2.735531        -1.519427
 C        -1.961242         1.733361        -2.522848
 O        -2.043050         0.265752        -2.161087
 C        -0.985800        -0.101023        -1.086510
 H         0.925024         0.294368         0.428282
 H        -3.137024         0.512464         0.634711
 H        -2.234996         0.449209         2.080606
 H        -0.712058         2.296732         1.556512
 H        -2.434996         3.727988         0.502696
 H        -3.297254         3.259784        -1.978871
 H        -2.368378         1.650197        -3.450637
 H        -0.824755         2.111979        -2.652961
 H        -1.236322        -1.212235        -0.885674
 H        -0.020938        -0.066404        -1.625967
