19
Iteration:  3425
 O         0.182461         0.172931         0.882471
 C        -0.988369         0.462845         0.292932
 C        -2.158789         0.549873         1.167381
 C        -1.575728         1.762150         0.599634
 C        -2.140919         2.799662        -0.241754
 C        -2.251445         2.950885        -1.613667
 C        -1.861197         1.724761        -2.459010
 O        -2.103417         0.332611        -1.906300
 C        -1.063407        -0.138529        -1.133107
 H         0.824555         0.763970         0.598931
 H        -3.148433         0.231512         0.848309
 H        -2.015171         0.540455         2.210835
 H        -1.007712         2.291275         1.468615
 H        -2.263816         3.676331         0.358741
 H        -2.690376         3.771846        -2.095971
 H        -2.322523         1.584145        -3.494985
 H        -0.767457         1.869771        -2.753077
 H        -1.125342        -1.251448        -1.244967
 H        -0.091504         0.013274        -1.642860
