19
Iteration:  3068charge 0 multiplicity 1
 O         0.261724        -0.013241         0.905662
 C        -0.962532         0.490193         0.348631
 C        -2.162466         0.644684         1.242327
 C        -1.452793         1.895553         0.578327
 C        -2.205006         2.793686        -0.350081
 C        -2.452765         2.808951        -1.664958
 C        -1.790557         1.770921        -2.476774
 O        -2.058909         0.448513        -1.952973
 C        -1.117271        -0.120501        -1.073507
 H         1.055144         0.011956         0.436725
 H        -3.013984         0.216941         0.708190
 H        -2.210594         0.599961         2.296183
 H        -0.729445         2.307855         1.341124
 H        -2.695390         3.487862         0.263607
 H        -3.262046         3.362941        -2.005541
 H        -2.210259         1.831321        -3.425876
 H        -0.696130         1.908144        -2.453923
 H        -1.473648        -1.131311        -0.950392
 H        -0.102360        -0.036776        -1.483152
