19
Iteration:   869
 O         0.008952        -0.034922         1.071853
 C        -0.875163         0.540879         0.226856
 C        -2.263920         0.663066         0.950145
 C        -1.387181         1.926299         0.712348
 C        -1.789241         2.870731        -0.306550
 C        -2.458938         2.627455        -1.467789
 C        -2.324290         1.562819        -2.395616
 O        -1.961917         0.264750        -2.001459
 C        -0.784354         0.172321        -1.243054
 H         0.541759         0.773122         1.383486
 H        -3.178950         0.863597         0.331965
 H        -2.434208         0.408574         2.004767
 H        -1.099628         2.413085         1.607453
 H        -1.729019         3.876158        -0.106219
 H        -2.930518         3.392701        -2.071936
 H        -3.238714         1.476073        -2.881154
 H        -1.480930         2.033494        -3.036085
 H        -0.584602        -0.870546        -1.125830
 H         0.167067         0.499428        -1.727084
