19
Iteration:  3795
 O         0.190498         0.183942         0.930552
 C        -0.998555         0.511085         0.305637
 C        -2.264571         0.479473         1.096374
 C        -1.531548         1.790473         0.618571
 C        -2.039352         2.849659        -0.263564
 C        -2.248117         2.734136        -1.611639
 C        -1.869801         1.622210        -2.529783
 O        -2.170616         0.407371        -1.877550
 C        -0.985890         0.003686        -1.079165
 H         0.948978         0.742600         0.487577
 H        -3.147423         0.089920         0.602958
 H        -2.027280         0.354533         2.156301
 H        -1.114911         2.187693         1.643048
 H        -2.293169         3.861113         0.153473
 H        -2.707978         3.689650        -2.086893
 H        -2.656787         1.653858        -3.363205
 H        -0.814943         1.790334        -2.899577
 H        -0.962346        -1.067520        -1.093165
 H        -0.108523         0.268423        -1.661143
