19
Iteration:  1012charge 0 multiplicity 1
 O         0.161943         0.012985         1.052365
 C        -0.861762         0.626508         0.291093
 C        -2.197746         0.540721         0.973366
 C        -1.541285         1.910679         0.679708
 C        -2.019096         2.946329        -0.201182
 C        -2.260205         2.826799        -1.556115
 C        -2.109358         1.612316        -2.509906
 O        -2.100458         0.258590        -1.955018
 C        -0.982764         0.006408        -1.185632
 H         0.951249         0.016484         0.500847
 H        -3.058529         0.059123         0.505757
 H        -1.962782         0.398252         2.053289
 H        -1.080071         2.206851         1.655756
 H        -2.174818         3.982460         0.178095
 H        -2.757861         3.702702        -2.075370
 H        -2.952397         1.574063        -3.208170
 H        -1.144498         1.744528        -3.089431
 H        -0.938965        -1.072168        -0.995160
 H        -0.016377         0.325372        -1.752747
