19
Iteration:   826
 O         0.253051        -0.083817         1.093269
 C        -0.878991         0.481893         0.354624
 C        -2.229963         0.726708         1.001809
 C        -1.495268         1.906374         0.612473
 C        -2.127139         2.876205        -0.277261
 C        -2.259523         2.784014        -1.627633
 C        -2.160166         1.610991        -2.462860
 O        -2.079700         0.297689        -1.943282
 C        -0.880738         0.101513        -1.136254
 H         0.992468        -0.133400         0.483571
 H        -3.122409         0.463295         0.354238
 H        -2.381754         0.515816         2.069858
 H        -1.027295         2.397810         1.428179
 H        -2.661693         3.616979         0.200154
 H        -2.681178         3.665112        -2.097061
 H        -3.085201         1.673729        -3.066866
 H        -1.396990         1.827020        -3.266513
 H        -0.801415        -0.995631        -1.238184
 H        -0.035420         0.609125        -1.615059
