19
Iteration:  3309
 O         0.039772        -0.159587         1.107558
 C        -0.914214         0.501092         0.337520
 C        -2.254326         0.640703         0.827724
 C        -1.467350         1.924615         0.809159
 C        -1.777227         2.961956        -0.258274
 C        -2.330606         2.689229        -1.568240
 C        -2.488075         1.505770        -2.560464
 O        -1.975384         0.277646        -1.932429
 C        -0.683922         0.325951        -1.174852
 H         0.806059         0.348615         1.081413
 H        -3.102768         0.380795         0.137561
 H        -2.428282         0.161149         1.782662
 H        -1.218921         2.448238         1.818485
 H        -1.676973         4.011881         0.113801
 H        -2.517954         3.686176        -2.167874
 H        -3.541764         1.293160        -2.847328
 H        -1.869289         1.727223        -3.458317
 H        -0.282517        -0.712690        -1.319254
 H        -0.021940         1.081940        -1.664418
