19
Iteration:  4961charge 0 multiplicity 1
 O         0.109918        -0.070176         1.247788
 C        -0.919484         0.474102         0.246724
 C        -2.179809         0.646172         1.012924
 C        -1.395661         1.857221         0.586582
 C        -2.135944         2.805835        -0.292959
 C        -2.430075         2.868628        -1.620235
 C        -2.085219         1.739634        -2.403164
 O        -1.999945         0.376923        -1.937376
 C        -0.857964        -0.027776        -1.303954
 H         0.930075         0.236030         0.943026
 H        -3.199735         0.753407         0.617502
 H        -2.081652         0.282764         2.061057
 H        -0.652682         2.449093         1.244515
 H        -2.492462         3.624780         0.363624
 H        -3.162574         3.449737        -2.037615
 H        -2.907104         1.639619        -3.242958
 H        -1.157724         1.909339        -3.172584
 H        -0.822985        -1.203415        -1.349082
 H         0.022712         0.500439        -1.873965
