19
Iteration:  4323charge 0 multiplicity 1
 O         0.112979        -0.123228         1.100007
 C        -0.894526         0.562949         0.258626
 C        -2.131655         0.741958         0.999466
 C        -1.331334         2.034279         0.650673
 C        -2.222905         2.889428        -0.254539
 C        -2.540910         2.720247        -1.546074
 C        -1.926411         1.750577        -2.443409
 O        -1.997651         0.308324        -2.003548
 C        -0.970261        -0.116947        -1.164790
 H         0.919815        -0.007502         0.432097
 H        -3.018361         0.615207         0.426334
 H        -2.205149         0.288213         1.966755
 H        -0.863616         2.654640         1.466216
 H        -2.508312         3.785728         0.276017
 H        -3.409035         3.294757        -1.859298
 H        -2.227630         1.644029        -3.478533
 H        -0.900105         1.954132        -2.691258
 H        -1.224523        -1.238879        -1.132868
 H        -0.007215        -0.023267        -1.721217
