19
Iteration:  1685charge 0 multiplicity 1
 O         0.032559        -0.027446         1.098405
 C        -0.951553         0.553449         0.323025
 C        -2.347409         0.656518         0.882204
 C        -1.405987         1.871358         0.683534
 C        -1.797304         2.850248        -0.280346
 C        -2.313202         2.703260        -1.542489
 C        -2.440551         1.577480        -2.427651
 O        -1.917794         0.258249        -1.952614
 C        -0.746175         0.244882        -1.158594
 H         0.879539         0.208030         0.584693
 H        -3.036477         0.316990         0.070165
 H        -2.426449         0.242585         1.898627
 H        -1.035440         2.297468         1.603852
 H        -1.618600         3.903842        -0.152464
 H        -2.550252         3.638520        -1.972420
 H        -3.573363         1.302859        -2.637576
 H        -1.977313         1.788150        -3.447316
 H        -0.445376        -0.800044        -1.220522
 H         0.160005         0.836182        -1.584311
