19
Iteration:   917charge 0 multiplicity 1
 O         0.114415        -0.073803         0.967099
 C        -0.900947         0.591266         0.282959
 C        -2.316528         0.526264         0.924876
 C        -1.576636         1.928900         0.693869
 C        -1.924048         2.850538        -0.348831
 C        -2.150418         2.780969        -1.647235
 C        -2.351958         1.531845        -2.339051
 O        -2.008229         0.328679        -1.790135
 C        -0.757973         0.213693        -1.239962
 H         0.517371         0.346846         1.693326
 H        -3.110260         0.131106         0.317156
 H        -2.206421         0.163884         1.974222
 H        -1.179548         2.402869         1.666400
 H        -1.799491         3.963891        -0.037574
 H        -2.341651         3.700853        -2.299627
 H        -3.534496         1.477818        -2.502367
 H        -1.807336         1.564163        -3.323451
 H        -0.273516        -0.858342        -1.315047
 H        -0.034296         0.861167        -1.701305
