19
Iteration:   197charge 0 multiplicity 1
 O         0.296566        -0.016475         0.996556
 C        -0.916687         0.544017         0.373847
 C        -2.213579         0.500675         1.095320
 C        -1.668242         1.868933         0.783806
 C        -2.053212         2.949561        -0.240448
 C        -2.368361         2.866268        -1.582611
 C        -2.104108         1.681535        -2.526204
 O        -2.017350         0.252498        -2.056157
 C        -0.926484         0.066935        -1.189588
 H         0.533972        -0.752050         0.462419
 H        -3.085806         0.213644         0.515868
 H        -2.235018         0.454146         2.183593
 H        -1.097840         2.424519         1.584498
 H        -2.061801         3.952033         0.282214
 H        -2.437866         3.900468        -2.037674
 H        -2.947886         1.620461        -3.198393
 H        -1.278935         1.966246        -3.240127
 H        -0.614845        -1.006065        -1.218292
 H        -0.047031         0.631289        -1.724725
