19
Iteration:  4690
 O         0.178033         0.074444         0.968337
 C        -0.957540         0.525760         0.280815
 C        -2.196421         0.509911         1.112989
 C        -1.500601         1.896672         0.671083
 C        -2.118580         2.862587        -0.266170
 C        -2.316344         2.748246        -1.595922
 C        -1.914646         1.707728        -2.512888
 O        -2.086136         0.411814        -1.916436
 C        -1.000859        -0.104716        -1.135730
 H         0.956621         0.550739         0.453261
 H        -3.066850         0.354433         0.529037
 H        -2.216436         0.213265         2.148865
 H        -0.983199         2.347082         1.497718
 H        -2.536575         3.781447         0.283549
 H        -2.792051         3.530466        -2.077879
 H        -2.571304         1.722325        -3.356578
 H        -0.858415         1.909943        -2.792643
 H        -1.143239        -1.173733        -1.214307
 H        -0.015795         0.149678        -1.725635
