19
Iteration:  2411charge 0 multiplicity 1
 O         0.232150         0.035633         1.040198
 C        -0.938128         0.503353         0.346760
 C        -2.277758         0.570017         1.000217
 C        -1.532319         1.864543         0.682173
 C        -2.021504         2.856259        -0.310856
 C        -2.283121         2.800305        -1.634316
 C        -2.096638         1.587801        -2.510014
 O        -2.121596         0.326319        -1.895321
 C        -0.866758         0.141393        -1.127329
 H         0.874913         0.121095         0.349581
 H        -3.317311         0.234380         0.566468
 H        -2.092327         0.325359         2.094907
 H        -1.165912         2.266943         1.661417
 H        -2.311431         3.817791         0.252721
 H        -2.733456         3.675168        -2.153728
 H        -2.846991         1.518023        -3.300966
 H        -1.149966         1.630190        -3.108476
 H        -0.656694        -0.925641        -1.200483
 H         0.009655         0.580585        -1.610393
