19
Iteration:   675charge 0 multiplicity 1
 O         0.071081        -0.039627         1.031564
 C        -0.922451         0.544573         0.262331
 C        -2.114464         0.754028         1.106791
 C        -1.280245         1.931926         0.560937
 C        -2.213069         2.739685        -0.284681
 C        -2.515826         2.743935        -1.554981
 C        -1.898022         1.743455        -2.528850
 O        -2.005855         0.467652        -1.892092
 C        -0.985682        -0.180419        -1.151155
 H         0.877586         0.438764         0.724076
 H        -3.087589         0.662048         0.622813
 H        -1.974225         0.200952         2.054294
 H        -0.669098         2.466057         1.236228
 H        -2.743405         3.374518         0.320175
 H        -3.324246         3.317676        -1.953509
 H        -2.721010         1.802928        -3.333669
 H        -0.842652         1.983303        -2.893353
 H        -1.243634        -1.329296        -1.086266
 H         0.027901        -0.167893        -1.622114
