19
Iteration:   160charge 0 multiplicity 1
 O         0.242232         0.258529         1.055624
 C        -0.872207         0.406152         0.174008
 C        -2.291346         0.470373         0.856064
 C        -1.602700         1.705729         0.677491
 C        -1.945360         2.728804        -0.200995
 C        -2.184521         2.830417        -1.586648
 C        -2.197499         1.650101        -2.525183
 O        -2.144359         0.462866        -1.671981
 C        -0.802595         0.111359        -1.294884
 H         0.056127        -0.439130         1.712730
 H        -3.180545         0.371830         0.225164
 H        -2.519497         0.029028         1.840027
 H        -1.018024         2.117109         1.447170
 H        -2.235434         3.654444         0.188297
 H        -2.339633         3.818810        -2.000144
 H        -3.221527         1.600055        -2.976575
 H        -1.406458         1.581093        -3.209886
 H        -0.584874        -0.994823        -1.458881
 H        -0.168268         0.813436        -1.874612
