19
Iteration:  2801charge 0 multiplicity 1
 O         0.176836         0.010261         1.063009
 C        -0.897197         0.570406         0.261605
 C        -2.221253         0.513176         0.931909
 C        -1.596780         1.915057         0.660513
 C        -2.021312         2.917707        -0.308521
 C        -2.192046         2.776346        -1.632673
 C        -2.159547         1.604620        -2.462128
 O        -2.084542         0.338243        -1.779958
 C        -0.887403         0.056451        -1.175401
 H         0.978836         0.169777         0.615433
 H        -2.947227         0.208687         0.269820
 H        -2.302390         0.176734         1.929403
 H        -1.395638         2.328466         1.657999
 H        -2.346655         3.859613         0.089636
 H        -2.331739         3.699967        -2.074953
 H        -3.091516         1.462419        -3.069157
 H        -1.430650         1.759042        -3.211785
 H        -0.650991        -1.016701        -1.098706
 H        -0.066542         0.450760        -1.708363
