19
Iteration:  3703charge 0 multiplicity 1
 O         0.027768        -0.136422         1.234484
 C        -0.871451         0.568386         0.334201
 C        -2.261538         0.666688         0.782271
 C        -1.461509         1.917440         0.715119
 C        -1.865307         2.885066        -0.332972
 C        -2.278052         2.697968        -1.508892
 C        -2.416896         1.528626        -2.394923
 O        -1.970786         0.230160        -1.972318
 C        -0.759804         0.351207        -1.278518
 H         0.895535         0.185284         0.955929
 H        -2.979329         0.414741         0.006342
 H        -2.432483         0.271644         1.793746
 H        -1.221569         2.302356         1.610263
 H        -1.906055         3.893604         0.110602
 H        -2.461362         3.547619        -2.116714
 H        -3.518481         1.271888        -2.629115
 H        -1.860007         1.587164        -3.315000
 H        -0.094482        -0.509003        -1.359680
 H        -0.172427         1.059996        -1.813874
