19
Iteration:  3108charge 0 multiplicity 1
 O         0.090647        -0.013770         0.923889
 C        -0.929518         0.521021         0.207451
 C        -2.107022         0.727100         1.216958
 C        -1.420224         1.943132         0.577997
 C        -2.281969         2.891940        -0.204543
 C        -2.342100         2.774845        -1.516465
 C        -1.795414         1.722282        -2.368722
 O        -2.055018         0.316312        -2.027999
 C        -1.037786        -0.147126        -1.188244
 H         0.931830         0.478760         0.546383
 H        -3.095206         0.437531         0.717774
 H        -1.919660         0.486772         2.310837
 H        -0.704224         2.488839         1.125106
 H        -3.068102         3.636484         0.240005
 H        -3.250392         3.147838        -2.022007
 H        -2.289603         1.809643        -3.366783
 H        -0.697748         1.811869        -2.625758
 H        -1.262493        -1.268381        -1.019308
 H        -0.062341        -0.147520        -1.713213
