19
Iteration:  4080
 O         0.107055        -0.059843         1.106185
 C        -0.862859         0.583734         0.348024
 C        -2.243386         0.534226         0.827757
 C        -1.511332         1.856621         0.721683
 C        -1.981114         2.907738        -0.287119
 C        -2.181188         2.779583        -1.644357
 C        -2.368774         1.592507        -2.455158
 O        -2.036102         0.279158        -1.911729
 C        -0.801275         0.195243        -1.134077
 H         0.913497         0.545460         1.259556
 H        -2.968027         0.476153        -0.004328
 H        -2.504707         0.094442         1.798179
 H        -1.151799         2.199192         1.656631
 H        -1.815299         3.888645        -0.043018
 H        -2.263548         3.662117        -2.162610
 H        -3.466327         1.521948        -2.704418
 H        -1.842122         1.663126        -3.481931
 H        -0.428811        -0.760459        -1.161096
 H        -0.023806         0.716204        -1.560185
