19
Iteration:   896
 O         0.205139        -0.130047         1.016170
 C        -0.895193         0.448785         0.294836
 C        -2.339597         0.714521         0.836973
 C        -1.450359         1.892356         0.652083
 C        -1.919872         3.050147        -0.227230
 C        -2.245845         2.811769        -1.531350
 C        -2.400861         1.495393        -2.508276
 O        -1.995639         0.162081        -1.912462
 C        -0.774302         0.221867        -1.083237
 H         0.543663         0.582282         1.623674
 H        -3.065746         0.632210         0.057834
 H        -2.614114         0.289547         1.815873
 H        -0.972970         2.329836         1.604828
 H        -2.327540         3.994317         0.347243
 H        -2.592411         3.641843        -2.208572
 H        -3.578153         1.450884        -2.719116
 H        -1.891138         1.757299        -3.479585
 H        -0.287128        -0.842211        -1.189370
 H        -0.057743         0.936891        -1.495320
