19
Iteration:  1239charge 0 multiplicity 1
 O         0.003839        -0.031330         1.031137
 C        -0.887047         0.611791         0.182179
 C        -2.188113         0.680681         0.989426
 C        -1.426168         1.973402         0.782258
 C        -1.991837         2.880536        -0.237105
 C        -2.388127         2.789836        -1.537090
 C        -2.153906         1.636222        -2.509468
 O        -2.026109         0.221977        -1.930702
 C        -0.800110        -0.047699        -1.197270
 H         0.935071         0.257825         0.773260
 H        -3.222261         0.624643         0.642460
 H        -2.059122         0.266086         2.008049
 H        -0.823101         2.540662         1.531911
 H        -2.251366         3.935192         0.050698
 H        -3.011112         3.579706        -2.025275
 H        -3.062955         1.393418        -3.189759
 H        -1.301123         1.994568        -3.140733
 H        -0.766406        -1.092926        -0.951643
 H         0.125395         0.067591        -1.755821
