19
Iteration:  4393charge 0 multiplicity 1
 O         0.170120         0.034487         1.056500
 C        -0.932966         0.541638         0.303685
 C        -2.231718         0.537831         1.053613
 C        -1.599567         1.882759         0.737974
 C        -2.010758         2.797384        -0.287372
 C        -2.148574         2.736619        -1.613041
 C        -2.161469         1.630308        -2.527589
 O        -2.062737         0.359309        -1.961970
 C        -0.918227         0.081826        -1.174375
 H         0.968824         0.629640         1.088209
 H        -3.094801         0.078659         0.492679
 H        -2.168119         0.303672         2.138932
 H        -1.283715         2.371877         1.652952
 H        -1.985965         3.937935         0.072644
 H        -2.527502         3.723310        -1.998191
 H        -3.065200         1.625743        -3.170319
 H        -1.440624         1.821766        -3.396645
 H        -0.834804        -0.899854        -1.341071
 H        -0.061555         0.519661        -1.740227
