19
Iteration:  1992
 O         0.168130         0.134548         0.916653
 C        -0.987516         0.537385         0.225853
 C        -2.175856         0.569087         1.115836
 C        -1.564219         1.874418         0.688040
 C        -2.059427         2.944286        -0.189915
 C        -2.143761         2.751814        -1.563310
 C        -1.970225         1.586313        -2.517739
 O        -2.147584         0.277132        -1.946443
 C        -0.999046        -0.017832        -1.166037
 H         0.815597         0.800192         0.922311
 H        -3.073007         0.213754         0.634521
 H        -2.136157         0.407065         2.200705
 H        -1.090866         2.172538         1.672121
 H        -2.345323         3.913518         0.337276
 H        -2.821441         3.583218        -2.071225
 H        -2.593756         1.684626        -3.421261
 H        -1.022972         1.567663        -2.967463
 H        -0.956075        -1.091830        -0.951172
 H        -0.121127         0.135626        -1.773097
