19
Iteration:  1548charge 0 multiplicity 1
 O         0.242631         0.110620         0.879031
 C        -0.961017         0.531247         0.299875
 C        -2.157648         0.551727         1.194347
 C        -1.553798         1.822239         0.664564
 C        -2.204769         2.827940        -0.325790
 C        -2.175881         2.860629        -1.664822
 C        -1.881337         1.670494        -2.505765
 O        -2.125215         0.456617        -1.893770
 C        -1.119478        -0.156236        -1.042133
 H         0.932346         0.540209         0.421847
 H        -3.050448         0.009406         0.766524
 H        -1.980117         0.085746         2.179577
 H        -1.024431         2.332325         1.430608
 H        -2.597961         3.735836         0.125215
 H        -2.583881         3.801492        -2.123421
 H        -2.490754         1.832440        -3.434144
 H        -0.772594         1.653307        -2.818126
 H        -1.321372        -1.198093        -0.910353
 H        -0.159942        -0.237869        -1.622174
