19
Iteration:  4388charge 0 multiplicity 1
 O         0.157003         0.025923         1.075707
 C        -0.950755         0.511898         0.305278
 C        -2.218959         0.587947         1.072312
 C        -1.580359         1.868271         0.705731
 C        -1.995703         2.829428        -0.267999
 C        -2.208733         2.750956        -1.561828
 C        -2.170733         1.606586        -2.567206
 O        -2.035720         0.353000        -1.961993
 C        -0.937182         0.103447        -1.233338
 H         0.936178         0.646523         1.077382
 H        -2.984918         0.169539         0.478104
 H        -2.157844         0.290939         2.094520
 H        -1.148062         2.324782         1.609687
 H        -2.106441         3.815366         0.108894
 H        -2.516616         3.616400        -2.120708
 H        -3.050244         1.667575        -3.217449
 H        -1.247349         1.865554        -3.150907
 H        -0.711756        -1.130456        -1.188133
 H        -0.022262         0.484452        -1.720936
