19
Iteration:  3505
 O         0.152573         0.035001         0.850041
 C        -1.022445         0.460266         0.222149
 C        -2.154451         0.795125         1.254051
 C        -1.434828         1.981245         0.633829
 C        -2.312476         2.882954        -0.175119
 C        -2.443003         2.762403        -1.512554
 C        -1.694809         1.715874        -2.352789
 O        -1.993870         0.359876        -2.099494
 C        -1.057700        -0.307915        -1.173677
 H         0.808912         0.428318         0.340897
 H        -3.147367         0.608178         0.832553
 H        -1.922790         0.345799         2.223323
 H        -0.624424         2.501760         1.159589
 H        -2.595807         3.705586         0.426037
 H        -3.316961         3.281850        -2.017189
 H        -2.009463         1.859145        -3.488222
 H        -0.585675         1.951161        -2.276890
 H        -1.506766        -1.303330        -1.165342
 H        -0.020320        -0.255406        -1.577755
