19
Iteration:  4248
 O         0.316788         0.227091         0.862370
 C        -0.956508         0.525693         0.294930
 C        -2.163092         0.460924         1.174783
 C        -1.707756         1.846984         0.699405
 C        -2.220905         2.826284        -0.294475
 C        -2.109824         2.811080        -1.575650
 C        -1.792388         1.671855        -2.474561
 O        -2.164257         0.395888        -1.990866
 C        -1.158369        -0.130768        -1.059226
 H         0.857625         0.858129         0.447638
 H        -3.027653        -0.063569         0.769702
 H        -1.919516         0.326765         2.210575
 H        -1.231001         2.376916         1.562942
 H        -2.414848         3.936998         0.200049
 H        -2.475959         3.630926        -2.272188
 H        -2.265092         1.712999        -3.490347
 H        -0.660136         1.527642        -2.775344
 H        -1.597690        -1.077720        -0.857882
 H        -0.217934        -0.415298        -1.700870
