19
Iteration:  1140charge 0 multiplicity 1
 O         0.330710         0.239769         0.863555
 C        -1.012288         0.511443         0.272049
 C        -2.159915         0.524545         1.202679
 C        -1.573457         1.852979         0.600932
 C        -2.256006         2.841059        -0.279124
 C        -2.230832         2.862841        -1.608338
 C        -1.740827         1.699418        -2.392907
 O        -2.185460         0.349964        -1.913900
 C        -1.181554        -0.217818        -1.131877
 H         0.956135         0.082581         0.159347
 H        -3.186538         0.138429         0.903653
 H        -2.038231         0.676467         2.285989
 H        -0.852841         2.176465         1.357967
 H        -2.572314         3.781705         0.166634
 H        -2.343177         3.774261        -2.278245
 H        -2.030585         1.745698        -3.521942
 H        -0.640868         1.728015        -2.377173
 H        -1.467892        -1.261392        -1.021672
 H        -0.111777        -0.244445        -1.607852
