19
Iteration:   365
 O         0.271272         0.352832         0.924606
 C        -0.982079         0.473269         0.333171
 C        -2.236420         0.357304         1.210395
 C        -1.638635         1.843243         0.809746
 C        -2.040128         2.771142        -0.268363
 C        -2.191206         2.754755        -1.637600
 C        -2.016882         1.748353        -2.592043
 O        -2.049176         0.440480        -2.020037
 C        -1.059887        -0.116892        -1.106423
 H         0.808912        -0.346752         0.517402
 H        -3.169882         0.344779         0.667813
 H        -2.065098         0.014670         2.244524
 H        -1.161663         2.347852         1.583201
 H        -2.246646         3.752355         0.160517
 H        -2.123369         3.692645        -2.082499
 H        -2.868338         1.673093        -3.293057
 H        -1.143815         1.859254        -3.278007
 H        -1.349710        -1.152593        -1.099339
 H        -0.064815         0.080080        -1.656634
