19
Iteration:  1519
 O         0.331422        -0.041831         0.863059
 C        -0.933238         0.421172         0.394454
 C        -2.210965         0.693456         1.191539
 C        -1.498670         1.902095         0.608295
 C        -2.233077         2.853610        -0.320564
 C        -2.353081         2.788084        -1.663438
 C        -1.761406         1.694067        -2.456645
 O        -2.169591         0.453035        -1.933347
 C        -1.118311        -0.090467        -1.061513
 H         0.968860         0.506968         0.361966
 H        -3.013049         0.172314         0.678924
 H        -2.094291         0.506630         2.230704
 H        -0.992365         2.364903         1.506158
 H        -2.802838         3.691331         0.113802
 H        -3.052585         3.490852        -2.220741
 H        -2.090682         1.873673        -3.532048
 H        -0.711224         1.696220        -2.464853
 H        -1.147953        -1.209490        -1.044203
 H        -0.164818         0.103373        -1.588582
