19
Iteration:  1579
 O         0.211996         0.260044         1.010536
 C        -0.951426         0.519148         0.227358
 C        -2.272542         0.549235         1.177579
 C        -1.530244         1.779900         0.632073
 C        -2.046179         2.924282        -0.218339
 C        -2.155232         2.839481        -1.562385
 C        -2.001548         1.612080        -2.477889
 O        -2.207175         0.303480        -1.984834
 C        -1.005482        -0.165470        -1.213042
 H         1.005420         0.774891         0.598042
 H        -3.209517         0.142140         0.657652
 H        -2.027857         0.108269         2.176923
 H        -0.938988         2.204163         1.404841
 H        -2.075474         3.879237         0.282867
 H        -2.281449         3.821354        -2.032020
 H        -2.576953         1.713915        -3.338690
 H        -0.916762         1.638638        -2.806315
 H        -1.211587        -1.305188        -1.150486
 H        -0.116399         0.224792        -1.764762
