19
Iteration:   721
 O         0.296458         0.057483         0.762365
 C        -0.991513         0.541202         0.296196
 C        -2.183738         0.620866         1.232177
 C        -1.598491         1.902815         0.744050
 C        -2.089443         2.934071        -0.257030
 C        -2.337575         2.795363        -1.570599
 C        -1.881141         1.624446        -2.531021
 O        -2.069530         0.291991        -2.018070
 C        -1.108872        -0.113592        -1.075940
 H         0.730736         0.769468         1.171577
 H        -3.084766         0.183113         0.796483
 H        -2.105887         0.446182         2.314458
 H        -0.935115         2.395402         1.470954
 H        -2.571257         3.844069         0.133439
 H        -2.662656         3.725452        -2.024658
 H        -2.370865         1.630970        -3.542528
 H        -0.771852         1.864218        -2.559699
 H        -1.348908        -1.196013        -1.084122
 H        -0.036272        -0.000461        -1.427827
