19
Iteration:  2101charge 0 multiplicity 1
 O         0.100770        -0.006537         0.970895
 C        -0.964029         0.611692         0.334664
 C        -2.404236         0.609955         0.894055
 C        -1.475005         1.898448         0.732733
 C        -1.707171         2.880223        -0.280062
 C        -2.218773         2.716043        -1.498284
 C        -2.404436         1.433541        -2.443117
 O        -1.945378         0.206498        -1.973473
 C        -0.819291         0.241257        -1.143576
 H         0.794779         0.661410         1.171295
 H        -3.130440         0.488308         0.111232
 H        -2.781433         0.475775         1.861096
 H        -1.101245         2.384433         1.647469
 H        -1.752817         3.925334         0.063920
 H        -2.839254         3.638390        -1.849561
 H        -3.371745         1.430430        -2.736964
 H        -1.685751         1.771019        -3.344838
 H        -0.338903        -0.794216        -1.154152
 H        -0.171892         1.030169        -1.662639
