19
Iteration:  2651charge 0 multiplicity 1
 O         0.223574         0.143018         0.935830
 C        -1.040704         0.431155         0.305776
 C        -2.131385         0.667316         1.245674
 C        -1.537714         1.921460         0.664234
 C        -2.226542         2.836994        -0.248302
 C        -2.288817         2.797607        -1.622778
 C        -1.913358         1.708019        -2.475348
 O        -2.018279         0.360339        -1.999029
 C        -1.015062        -0.198246        -1.155906
 H         0.791304        -0.095576         0.215741
 H        -3.059614         0.382036         0.840322
 H        -2.061344         0.455208         2.256489
 H        -0.752995         2.394552         1.122323
 H        -2.735609         3.680896         0.228432
 H        -2.674115         3.669887        -2.136282
 H        -2.558040         1.784350        -3.359957
 H        -0.925953         1.851980        -2.791962
 H        -1.217378        -1.239433        -1.186527
 H        -0.062897         0.014427        -1.512863
