19
Iteration:  2044
 O         0.152357        -0.076881         1.175826
 C        -0.898898         0.500248         0.296411
 C        -2.222392         0.535241         0.941077
 C        -1.520617         1.927052         0.587313
 C        -1.981571         2.919373        -0.378826
 C        -2.331926         2.780528        -1.634206
 C        -2.214037         1.620921        -2.478494
 O        -2.057228         0.407690        -1.836209
 C        -0.803228         0.105769        -1.132195
 H         0.967501         0.040176         0.689485
 H        -3.137650         0.066723         0.492943
 H        -2.030500         0.175256         2.002022
 H        -1.110535         2.390620         1.518711
 H        -2.223443         3.877799         0.154806
 H        -2.674924         3.750432        -2.131083
 H        -3.220955         1.524311        -2.843114
 H        -1.606860         1.636829        -3.540652
 H        -0.627824        -1.061315        -1.173099
 H         0.001466         0.557369        -1.784109
