19
Iteration:  1041
 O         0.156590        -0.052147         1.008749
 C        -0.956522         0.423482         0.326170
 C        -2.189833         0.764244         1.078860
 C        -1.352221         1.888243         0.620645
 C        -2.107185         2.771773        -0.292539
 C        -2.473368         2.743161        -1.557218
 C        -1.992694         1.695952        -2.495168
 O        -2.032882         0.411028        -1.923827
 C        -0.971422        -0.010989        -1.150042
 H         0.849399         0.459492         0.647720
 H        -3.147746         0.729491         0.567355
 H        -2.182481         0.541183         2.186052
 H        -0.447263         2.193738         1.049922
 H        -2.654047         3.557238         0.163402
 H        -3.122475         3.429444        -2.052395
 H        -2.562734         1.638742        -3.500800
 H        -0.986708         1.935071        -2.810715
 H        -0.930974        -1.085174        -1.194078
 H        -0.091318         0.463049        -1.555566
