19
Iteration:   196charge 0 multiplicity 1
 O         0.294205        -0.008105         0.998855
 C        -0.920783         0.537994         0.368699
 C        -2.213505         0.488243         1.088782
 C        -1.661720         1.868284         0.774856
 C        -2.051820         2.954815        -0.245155
 C        -2.359861         2.872080        -1.576900
 C        -2.109533         1.682155        -2.527530
 O        -2.020452         0.256342        -2.047881
 C        -0.924197         0.072099        -1.180061
 H         0.527532        -0.781751         0.469381
 H        -3.094643         0.196687         0.530661
 H        -2.237648         0.412931         2.167386
 H        -1.088004         2.427020         1.571444
 H        -2.084621         3.929474         0.276487
 H        -2.427510         3.881682        -2.051927
 H        -2.945128         1.609555        -3.210118
 H        -1.304101         1.941005        -3.225859
 H        -0.586248        -0.997815        -1.211961
 H        -0.056274         0.618897        -1.737770
