19
Iteration:  4062charge 0 multiplicity 1
 O         0.182183         0.020131         1.097380
 C        -0.936098         0.487480         0.289237
 C        -2.349131         0.465193         0.862537
 C        -1.656175         1.847640         0.688240
 C        -1.841469         2.907073        -0.315190
 C        -2.066541         2.794255        -1.625544
 C        -2.344057         1.510447        -2.459787
 O        -2.065413         0.324796        -1.790206
 C        -0.783114         0.242119        -1.233941
 H         0.821456         0.787667         1.069290
 H        -3.156369        -0.050429         0.321517
 H        -2.336204         0.242623         1.944145
 H        -1.394603         2.292261         1.676094
 H        -1.965056         3.848557         0.241451
 H        -2.141755         3.837465        -2.186298
 H        -3.404975         1.636361        -2.657499
 H        -1.833280         1.655174        -3.459376
 H        -0.579120        -0.856939        -1.365018
 H         0.029362         0.949123        -1.736691
