19
Iteration:  3790charge 0 multiplicity 1
 O         0.184823         0.153466         0.958484
 C        -0.945297         0.527729         0.303808
 C        -2.269610         0.495022         1.085792
 C        -1.530779         1.813033         0.702000
 C        -2.034317         2.856206        -0.279845
 C        -2.244319         2.771817        -1.630448
 C        -1.914760         1.599016        -2.536967
 O        -2.159123         0.388522        -1.907797
 C        -0.963163         0.011846        -1.097256
 H         0.822339         0.687150         0.531711
 H        -3.215697         0.165818         0.637099
 H        -2.041792         0.224491         2.117812
 H        -1.083756         2.168803         1.551785
 H        -2.343781         3.815353         0.203494
 H        -2.816141         3.530010        -2.075849
 H        -2.643088         1.740378        -3.327705
 H        -0.882882         1.695545        -3.001678
 H        -1.072079        -1.110503        -1.066191
 H        -0.123940         0.436197        -1.721307
