19
Iteration:  3820
 O         0.314113         0.229382         0.895192
 C        -0.954323         0.416275         0.314896
 C        -2.240358         0.496405         1.148452
 C        -1.645171         1.752231         0.651423
 C        -2.212759         2.902179        -0.331311
 C        -2.204176         2.963993        -1.674865
 C        -1.818435         1.657097        -2.421512
 O        -2.167117         0.411915        -1.873912
 C        -1.044956        -0.204418        -1.089529
 H         0.957864         0.824341         0.432067
 H        -3.130673         0.218937         0.580484
 H        -2.116501         0.211929         2.179915
 H        -1.034555         2.207356         1.407980
 H        -2.409165         3.757221         0.158869
 H        -2.477265         3.812434        -2.243872
 H        -2.343473         1.636146        -3.339842
 H        -0.776638         1.750686        -2.601058
 H        -1.256175        -1.320242        -1.124854
 H        -0.142681        -0.238671        -1.735126
