19
Iteration:  2241
 O         0.182263         0.058835         1.061135
 C        -0.956144         0.523236         0.250178
 C        -2.179647         0.655808         1.271165
 C        -1.471249         1.896110         0.719003
 C        -2.137210         2.792209        -0.253485
 C        -2.263630         2.780649        -1.595699
 C        -2.021183         1.713325        -2.555318
 O        -2.062150         0.279113        -2.089366
 C        -1.016416        -0.040123        -1.251031
 H         0.836815         0.718742         0.937781
 H        -3.150386         0.431950         0.967566
 H        -2.008998         0.366013         2.255747
 H        -0.880545         2.527023         1.355510
 H        -2.202713         3.761704         0.217681
 H        -2.810954         3.617598        -2.152168
 H        -2.795283         1.546888        -3.453320
 H        -0.867480         1.732771        -2.813624
 H        -1.310337        -1.115431        -0.976564
 H        -0.002800         0.066918        -1.686314
