19
Iteration:  2564
 O         0.146820         0.018079         1.139300
 C        -0.899561         0.466779         0.240372
 C        -2.276314         0.528647         0.860523
 C        -1.459937         1.908338         0.689309
 C        -1.989679         2.914054        -0.304372
 C        -2.291645         2.858227        -1.633797
 C        -2.220984         1.570956        -2.479607
 O        -2.056259         0.369858        -1.789366
 C        -0.805821         0.023792        -1.193136
 H         0.868666         0.703220         1.101833
 H        -3.113701         0.351680         0.264744
 H        -2.240451         0.365913         1.880899
 H        -1.001723         2.314369         1.497228
 H        -2.006716         3.901403         0.121386
 H        -2.843247         3.647262        -2.095038
 H        -3.261966         1.363314        -2.703715
 H        -1.650540         1.562905        -3.533716
 H        -0.855551        -1.066286        -1.213389
 H         0.171726         0.317745        -1.838479
