19
Iteration:  4292charge 0 multiplicity 1
 O         0.199573         0.039426         0.966758
 C        -1.034599         0.484022         0.242405
 C        -2.204322         0.671833         1.237093
 C        -1.450308         1.916517         0.578415
 C        -2.222497         2.799910        -0.231620
 C        -2.405886         2.771409        -1.560070
 C        -1.774154         1.715559        -2.506756
 O        -2.043190         0.361570        -1.974772
 C        -1.039299        -0.132356        -1.153709
 H         0.832487         0.506442         0.495178
 H        -3.204625         0.552075         0.897933
 H        -1.875468         0.418218         2.229373
 H        -0.783727         2.411087         1.290218
 H        -2.569756         3.824455         0.219626
 H        -2.977658         3.471363        -2.091660
 H        -2.373383         1.750999        -3.436225
 H        -0.637828         1.943626        -2.600986
 H        -1.131335        -1.115775        -1.242950
 H        -0.027251         0.014816        -1.678704
