19
Iteration:  1310
 O         0.064292        -0.096025         1.079725
 C        -0.951590         0.656750         0.268425
 C        -2.264652         0.511609         0.900642
 C        -1.505201         1.909774         0.748721
 C        -1.836360         2.822370        -0.367101
 C        -2.152166         2.692528        -1.620953
 C        -2.438697         1.555302        -2.407858
 O        -2.009743         0.319382        -1.860396
 C        -0.798886         0.292410        -1.187962
 H         0.771994         0.580343         1.236346
 H        -3.183243         0.346579         0.294041
 H        -2.251520         0.082708         1.919537
 H        -1.002238         2.342894         1.576554
 H        -1.684583         3.845219        -0.144704
 H        -2.337796         3.603736        -2.239750
 H        -3.481339         1.496906        -2.658704
 H        -1.856293         1.494063        -3.355909
 H        -0.294564        -0.671068        -1.249275
 H         0.000734         0.927419        -1.665721
