19
Iteration:  2119
 O         0.152642        -0.062207         0.982541
 C        -1.007555         0.473382         0.341015
 C        -2.334044         0.634304         0.940973
 C        -1.547127         1.915470         0.753609
 C        -1.834254         3.012002        -0.318842
 C        -2.226797         2.783983        -1.615400
 C        -2.381292         1.553198        -2.407283
 O        -1.933039         0.156763        -1.988920
 C        -0.777626         0.223475        -1.119291
 H         0.772182         0.700969         1.143943
 H        -3.276380         0.382219         0.422491
 H        -2.356725         0.144949         1.987079
 H        -1.188825         2.166299         1.779822
 H        -1.709113         4.080062         0.014311
 H        -2.170775         3.654596        -2.300954
 H        -3.565111         1.350071        -2.524872
 H        -2.022761         1.686878        -3.376157
 H        -0.412230        -0.835830        -1.158717
 H        -0.088891         0.915257        -1.561966
