19
Iteration:  4033
 O         0.181652         0.204026         1.051062
 C        -1.020798         0.478975         0.341870
 C        -2.310983         0.326762         0.941510
 C        -1.618554         1.762112         0.662194
 C        -1.843060         2.804928        -0.287419
 C        -2.043331         2.827749        -1.664867
 C        -2.296722         1.556172        -2.518343
 O        -2.136993         0.343620        -1.802473
 C        -0.890985         0.278288        -1.157471
 H         0.781479         0.781341         0.687649
 H        -3.077486        -0.103774         0.329764
 H        -2.338271         0.047437         1.980536
 H        -1.144146         2.160152         1.596673
 H        -1.483999         3.886615         0.166710
 H        -1.707311         3.776562        -2.133922
 H        -3.295338         1.632709        -3.023845
 H        -1.455170         1.612424        -3.301433
 H        -0.485530        -0.818341        -1.336829
 H        -0.039976         0.761199        -1.521429
