19
Iteration:   681charge 0 multiplicity 1
 O         0.086646        -0.040497         0.993551
 C        -0.958876         0.523368         0.243329
 C        -2.095759         0.787570         1.150879
 C        -1.341836         1.915016         0.538076
 C        -2.176923         2.750647        -0.270074
 C        -2.496238         2.749988        -1.569887
 C        -1.888515         1.730354        -2.520454
 O        -2.015843         0.450688        -1.891898
 C        -1.026642        -0.168179        -1.148460
 H         0.932217         0.548682         0.999138
 H        -3.045250         0.500273         0.677704
 H        -1.917738         0.194889         2.025619
 H        -0.618684         2.446112         1.234003
 H        -2.899851         3.322109         0.467674
 H        -3.278612         3.472582        -1.949548
 H        -2.448553         1.640868        -3.434983
 H        -0.832893         1.916983        -2.753678
 H        -0.956122        -1.225084        -1.075093
 H        -0.067645         0.076724        -1.676902
