19
Iteration:  3495
 O         0.190555         0.042530         0.819772
 C        -1.055808         0.445922         0.261037
 C        -2.091076         0.712708         1.207929
 C        -1.410180         1.929605         0.672744
 C        -2.242056         2.920949        -0.215294
 C        -2.538960         2.719860        -1.533511
 C        -1.657326         1.741244        -2.407152
 O        -1.973931         0.389090        -2.057201
 C        -1.200238        -0.210505        -1.105122
 H         0.932578         0.308790         0.333963
 H        -3.075216         0.561996         0.743567
 H        -2.113595         0.490414         2.277068
 H        -0.788830         2.375303         1.384379
 H        -2.909697         3.672416         0.199066
 H        -3.249026         3.359839        -2.136071
 H        -1.792187         1.803757        -3.550471
 H        -0.527096         1.811244        -2.302126
 H        -1.290717        -1.279758        -1.030924
 H        -0.121468        -0.204683        -1.470468
