19
Iteration:  1463
 O         0.160166         0.044057         1.054549
 C        -0.961471         0.457847         0.324698
 C        -2.198085         0.736855         1.107512
 C        -1.284676         1.977524         0.652960
 C        -2.096941         2.943947        -0.172762
 C        -2.497099         2.784631        -1.517077
 C        -1.914681         1.717831        -2.447614
 O        -2.027637         0.237204        -2.205701
 C        -1.044604        -0.168572        -1.167659
 H         0.985438         0.246957         0.457915
 H        -3.193927         0.666018         0.570491
 H        -2.265937         0.454552         2.200659
 H        -0.532943         2.195642         1.408612
 H        -2.719990         3.703441         0.294196
 H        -3.479214         3.319937        -1.932796
 H        -2.481714         1.804297        -3.498234
 H        -0.901049         1.794607        -2.669162
 H        -1.310131        -1.180615        -0.906394
 H        -0.061330         0.013801        -1.648367
