19
Iteration:  1734
 O         0.069897         0.012563         1.032804
 C        -0.876104         0.634663         0.265441
 C        -2.304299         0.464702         0.865763
 C        -1.507451         1.842767         0.661657
 C        -1.889701         2.917819        -0.268116
 C        -2.030364         2.765387        -1.562349
 C        -2.434047         1.498574        -2.369830
 O        -2.010042         0.270567        -1.932665
 C        -0.827833         0.233046        -1.154878
 H         0.678602         0.639846         1.347854
 H        -3.183104         0.448192         0.271090
 H        -2.355012         0.295161         1.919648
 H        -1.093623         2.264494         1.621649
 H        -2.110401         3.922815         0.165442
 H        -2.174973         3.674262        -2.255848
 H        -3.504271         1.484557        -2.418182
 H        -2.105496         1.537680        -3.444705
 H        -0.433578        -0.875469        -1.171939
 H        -0.047716         0.706876        -1.667210
