19
Iteration:  4306charge 0 multiplicity 1
 O         0.118066        -0.025885         1.010523
 C        -0.917680         0.515318         0.260462
 C        -2.129424         0.690296         1.120249
 C        -1.399618         1.931443         0.582808
 C        -2.199599         2.891979        -0.280949
 C        -2.482799         2.753639        -1.549203
 C        -1.862653         1.697552        -2.448250
 O        -2.036987         0.355239        -2.047849
 C        -1.020858        -0.094626        -1.122117
 H         1.091696         0.106532         0.667433
 H        -3.136099         0.451871         0.714588
 H        -2.016503         0.534138         2.210328
 H        -0.772933         2.320263         1.331445
 H        -2.821666         3.532706         0.479461
 H        -3.157802         3.451012        -2.017744
 H        -2.284537         1.782800        -3.477204
 H        -0.715259         1.866294        -2.547102
 H        -1.159006        -1.165872        -0.789091
 H         0.007604         0.143631        -1.515529
