19
Iteration:  3350
 O         0.050105        -0.072969         1.171004
 C        -0.954953         0.419111         0.241708
 C        -2.207752         0.519879         0.944012
 C        -1.500520         1.893813         0.604692
 C        -1.910597         2.984913        -0.251352
 C        -2.303853         2.862254        -1.605731
 C        -2.327457         1.553296        -2.526120
 O        -2.008406         0.309142        -1.848807
 C        -0.698159         0.193833        -1.207334
 H         0.936051         0.342151         0.895368
 H        -3.153684         0.551690         0.412230
 H        -2.212297         0.387788         1.978114
 H        -0.944411         1.983389         1.589853
 H        -2.093126         3.981595         0.098335
 H        -2.709627         3.734450        -2.013288
 H        -3.409983         1.235899        -2.796355
 H        -1.646234         1.669522        -3.385942
 H        -0.448678        -0.850575        -1.515369
 H         0.039695         0.972052        -1.586166
