19
Iteration:  2032
 O         0.182569        -0.024190         1.077785
 C        -0.880041         0.505906         0.353803
 C        -2.231233         0.552467         1.000183
 C        -1.542028         1.848820         0.668208
 C        -2.034600         2.871555        -0.314175
 C        -2.315498         2.843869        -1.666863
 C        -2.238783         1.604741        -2.606371
 O        -2.030017         0.397866        -1.790961
 C        -0.850346         0.058266        -1.131914
 H         1.054073        -0.035611         0.543535
 H        -3.100595         0.427159         0.276398
 H        -2.442896         0.404136         2.095930
 H        -1.023300         2.325447         1.501762
 H        -1.893690         3.905956         0.002083
 H        -2.700165         3.763778        -2.114054
 H        -3.103104         1.382403        -3.217340
 H        -1.265703         1.843291        -3.322828
 H        -0.743259        -1.090626        -1.268947
 H         0.071683         0.585215        -1.485596
