19
Iteration:  2916
 O         0.094759        -0.019027         1.120535
 C        -0.945996         0.475086         0.334488
 C        -2.279695         0.651581         0.840829
 C        -1.479615         1.895830         0.762464
 C        -1.798905         2.911370        -0.288934
 C        -2.323285         2.719118        -1.568584
 C        -2.355289         1.496181        -2.451452
 O        -1.983156         0.271037        -1.916463
 C        -0.795125         0.259971        -1.193919
 H         0.872250         0.321180         0.733140
 H        -2.921220         0.516027        -0.038250
 H        -2.706264         0.252223         1.800166
 H        -0.902680         2.134342         1.663334
 H        -1.982127         3.895513         0.052329
 H        -2.593654         3.620688        -2.146546
 H        -3.435096         1.393850        -2.867130
 H        -1.868770         1.641663        -3.416457
 H        -0.294691        -0.686128        -1.281996
 H        -0.030500         0.881264        -1.747261
