19
Iteration:  1604
 O         0.258027         0.073783         0.941419
 C        -0.958320         0.536992         0.338288
 C        -2.302614         0.532158         0.981583
 C        -1.501290         1.894627         0.717008
 C        -1.936187         2.901177        -0.245570
 C        -2.242228         2.752361        -1.594899
 C        -2.083312         1.597420        -2.516827
 O        -2.111189         0.320666        -1.908341
 C        -0.996079        -0.024293        -1.115693
 H         0.870395         0.839985         0.747078
 H        -3.139390         0.455274         0.276394
 H        -2.524904         0.326348         2.035569
 H        -1.140000         2.299548         1.672291
 H        -2.085524         3.933185         0.148434
 H        -2.626501         3.775855        -1.950611
 H        -2.986314         1.549741        -3.247531
 H        -1.118619         1.667809        -3.147716
 H        -1.039445        -1.083855        -1.036472
 H        -0.129837         0.551738        -1.569009
