19
Iteration:  2428charge 0 multiplicity 1
 O         0.172933         0.109619         1.100923
 C        -0.920644         0.431899         0.285169
 C        -2.328083         0.544067         0.942202
 C        -1.469144         1.835951         0.599985
 C        -1.955659         2.862398        -0.299421
 C        -2.273169         2.813120        -1.624140
 C        -2.199509         1.633556        -2.503476
 O        -2.069944         0.332360        -1.763983
 C        -0.848183         0.067102        -1.203089
 H         0.981213         0.407623         0.738290
 H        -3.008183         0.387449         0.128671
 H        -2.691514         0.304029         1.906982
 H        -0.882774         2.219583         1.469141
 H        -2.164193         3.733001         0.261991
 H        -2.898986         3.635001        -1.995338
 H        -3.222123         1.468774        -2.906473
 H        -1.359833         1.754522        -3.233389
 H        -0.425026        -0.967930        -1.326399
 H         0.141818         0.647102        -1.569201
