19
Iteration:  2570charge 0 multiplicity 1
 O         0.131248         0.053189         1.082980
 C        -0.934196         0.475113         0.269959
 C        -2.233657         0.550735         0.886338
 C        -1.451924         1.847034         0.594457
 C        -1.965887         2.917030        -0.302477
 C        -2.285217         2.824238        -1.618069
 C        -2.192458         1.554892        -2.447611
 O        -2.042889         0.392521        -1.781317
 C        -0.840307         0.006257        -1.174051
 H         0.735593         0.754811         1.114355
 H        -3.066090         0.392029         0.114663
 H        -2.353422         0.221925         2.013117
 H        -1.059963         2.383979         1.596310
 H        -2.073223         3.886606         0.261559
 H        -2.963587         3.539222        -2.175001
 H        -3.273443         1.553165        -2.846195
 H        -1.568664         1.677347        -3.276051
 H        -0.769925        -1.103871        -1.303773
 H         0.013989         0.377158        -1.599580
