19
Iteration:   432
 O         0.074777        -0.133011         1.110322
 C        -0.784732         0.617724         0.231185
 C        -2.189520         0.632811         0.926367
 C        -1.379364         1.937920         0.637868
 C        -2.052658         2.838541        -0.300045
 C        -2.472841         2.706093        -1.523007
 C        -2.154549         1.646311        -2.496604
 O        -2.064381         0.350342        -1.905382
 C        -0.807428         0.065728        -1.194356
 H         0.419165         0.524906         1.763860
 H        -3.154655         0.537661         0.422469
 H        -2.070659         0.238927         1.924282
 H        -0.940302         2.336399         1.579505
 H        -2.369566         3.824512         0.147814
 H        -2.953353         3.631272        -1.922731
 H        -2.970239         1.540610        -3.304564
 H        -1.260536         1.938355        -3.194104
 H        -0.686767        -1.018446        -1.164783
 H         0.100321         0.538035        -1.685269
