19
Iteration:  1064
 O         0.050285        -0.109415         0.972840
 C        -0.947567         0.531582         0.298409
 C        -2.114108         0.638529         1.247545
 C        -1.310786         2.008645         0.485935
 C        -2.178224         2.890470        -0.289470
 C        -2.567491         2.744339        -1.540205
 C        -1.868733         1.742545        -2.494769
 O        -2.039682         0.367375        -1.974377
 C        -0.922273        -0.138841        -1.187009
 H         0.797016         0.580246         0.908824
 H        -3.190888         0.825541         1.149817
 H        -1.632762         0.455002         2.267752
 H        -0.809320         2.417204         1.353767
 H        -2.684046         3.621905         0.331334
 H        -3.291624         3.305908        -2.146518
 H        -2.328861         1.752092        -3.572015
 H        -0.829219         1.945580        -2.660404
 H        -1.184548        -1.155279        -1.101774
 H         0.075759         0.031087        -1.535057
