19
Iteration:  3940charge 0 multiplicity 1
 O         0.145326        -0.105092         1.146685
 C        -0.925323         0.535573         0.256643
 C        -2.187118         0.709662         1.039691
 C        -1.315140         1.977482         0.529602
 C        -2.184873         2.855220        -0.211077
 C        -2.503435         2.646790        -1.492667
 C        -1.883033         1.705341        -2.495074
 O        -2.047729         0.376837        -2.085867
 C        -1.005061        -0.024847        -1.132542
 H         1.078373         0.102283         0.749255
 H        -3.152890         0.564355         0.545928
 H        -2.199071         0.670873         2.136044
 H        -0.814881         2.520923         1.288299
 H        -2.585915         3.596352         0.289874
 H        -3.237713         3.323414        -1.864101
 H        -2.440908         1.908631        -3.389602
 H        -0.825408         1.956412        -2.697380
 H        -1.060953        -1.105271        -1.081011
 H        -0.090382         0.166041        -1.663252
