19
Iteration:  1111
 O         0.234614         0.175900         0.839169
 C        -1.057598         0.538041         0.214920
 C        -2.227012         0.605217         1.185238
 C        -1.397797         1.935509         0.691501
 C        -2.122410         2.845691        -0.229004
 C        -2.374197         2.706433        -1.580416
 C        -1.740001         1.717421        -2.454067
 O        -2.050408         0.364973        -1.971029
 C        -1.165432        -0.175265        -1.078769
 H         0.735796         0.039740         0.053907
 H        -3.185787         0.471240         0.669031
 H        -2.102802         0.467005         2.230216
 H        -0.560266         2.213754         1.422556
 H        -2.877151         3.591920         0.206781
 H        -3.224823         3.242591        -1.983882
 H        -2.167262         1.677996        -3.433871
 H        -0.660040         1.903497        -2.584375
 H        -1.563305        -1.170567        -0.894258
 H        -0.140043        -0.238514        -1.350137
