19
Iteration:  2418charge 0 multiplicity 1
 O         0.234885         0.065064         1.072148
 C        -0.974690         0.502430         0.322913
 C        -2.294645         0.537430         0.963849
 C        -1.510840         1.848953         0.637135
 C        -1.974695         2.827297        -0.325040
 C        -2.269097         2.848456        -1.605685
 C        -2.128286         1.585704        -2.497094
 O        -2.071133         0.331766        -1.830886
 C        -0.860071         0.053371        -1.154085
 H         0.938769         0.213018         0.456879
 H        -3.254502         0.543366         0.415615
 H        -2.328903         0.394315         2.032101
 H        -1.254758         2.395057         1.588825
 H        -2.306513         3.751248         0.096069
 H        -2.937792         3.678829        -1.864511
 H        -2.981988         1.583337        -3.213037
 H        -1.289853         1.644802        -3.200260
 H        -0.600466        -1.013355        -1.393023
 H        -0.264424         0.929937        -1.650657
