19
Iteration:   488charge 0 multiplicity 1
 O         0.064404        -0.042795         0.877024
 C        -1.010898         0.583114         0.271319
 C        -2.233252         0.559928         1.081656
 C        -1.538136         1.971401         0.765900
 C        -1.873188         2.951339        -0.285788
 C        -2.283796         2.689800        -1.528736
 C        -2.322591         1.503812        -2.439405
 O        -1.877466         0.264135        -2.037806
 C        -0.783974         0.211085        -1.155470
 H         0.024642         0.176729         1.864887
 H        -3.221296         0.423522         0.672696
 H        -2.092859         0.272627         2.115595
 H        -1.023665         2.403227         1.690987
 H        -1.887680         4.028462        -0.049617
 H        -2.733943         3.633962        -2.007335
 H        -3.316722         1.146352        -2.891550
 H        -1.498750         1.800290        -3.244668
 H        -0.652369        -0.885396        -1.307262
 H         0.153492         0.726723        -1.572897
