19
Iteration:  4413
 O         0.223249         0.077231         1.002249
 C        -0.990782         0.531319         0.347487
 C        -2.274515         0.379930         1.016079
 C        -1.653271         1.801682         0.736029
 C        -1.968233         2.887291        -0.305183
 C        -2.022134         2.877520        -1.691032
 C        -2.244224         1.583755        -2.578500
 O        -2.093997         0.322442        -1.840910
 C        -0.891980         0.170474        -1.099512
 H         1.014700         0.722133         0.743409
 H        -3.080166         0.130591         0.277120
 H        -2.317271        -0.040588         2.027739
 H        -1.259125         2.221068         1.612035
 H        -2.231058         3.951459         0.260538
 H        -1.969427         3.775925        -2.251778
 H        -3.254374         1.698601        -3.032307
 H        -1.590869         1.647044        -3.452287
 H        -0.644772        -0.918099        -0.969082
 H        -0.009438         0.549693        -1.672242
