19
Iteration:  4453
 O         0.180669         0.204161         1.106666
 C        -0.911737         0.529500         0.290790
 C        -2.362275         0.409300         0.846624
 C        -1.632962         1.762158         0.706645
 C        -1.790682         2.835322        -0.275836
 C        -2.087039         2.821509        -1.611507
 C        -2.298192         1.579872        -2.514755
 O        -2.154895         0.317933        -1.770604
 C        -0.857723         0.182676        -1.229500
 H         0.897711         0.660839         0.758505
 H        -3.119776         0.112127         0.167674
 H        -2.402447        -0.064572         1.789326
 H        -1.189971         2.088800         1.634479
 H        -1.736774         3.756862         0.056427
 H        -2.054859         3.786777        -2.050468
 H        -3.276267         1.405164        -2.949392
 H        -1.413020         1.543238        -3.171426
 H        -0.580024        -0.946113        -1.246393
 H        -0.069391         0.781711        -1.682009
