19
Iteration:  4605charge 0 multiplicity 1
 O         0.304598         0.111150         0.945029
 C        -0.928888         0.488557         0.357367
 C        -2.253161         0.502622         1.094781
 C        -1.584687         1.788087         0.652178
 C        -2.172663         2.878483        -0.248597
 C        -2.247661         2.839517        -1.601272
 C        -1.864211         1.619805        -2.511043
 O        -2.140997         0.394287        -1.901890
 C        -1.053888         0.002077        -1.198288
 H         0.891085         0.782082         0.765358
 H        -3.063299         0.146739         0.459470
 H        -2.412446         0.434732         2.172076
 H        -1.019364         2.275100         1.444001
 H        -2.323872         3.761501         0.308775
 H        -2.633755         3.576761        -2.213417
 H        -2.487898         1.625246        -3.435110
 H        -0.914321         1.684318        -2.929131
 H        -1.137348        -1.040390        -0.991996
 H        -0.070604         0.157327        -1.587687
