19
Iteration:  3784charge 0 multiplicity 1
 O         0.201260         0.097731         1.011083
 C        -0.936678         0.539752         0.291524
 C        -2.242630         0.517768         1.073451
 C        -1.557865         1.868416         0.770337
 C        -2.036492         2.853335        -0.302585
 C        -2.219287         2.809846        -1.621540
 C        -1.992923         1.611919        -2.540850
 O        -2.121478         0.341019        -1.931776
 C        -0.971510         0.017321        -1.163288
 H         0.922269         0.641804         0.635283
 H        -3.218685         0.317034         0.630300
 H        -2.206012         0.061766         2.079982
 H        -0.905236         2.361492         1.632678
 H        -2.471488         3.722462         0.281234
 H        -2.943582         3.550782        -2.142358
 H        -2.678265         1.708115        -3.454752
 H        -1.016015         1.533414        -3.075763
 H        -0.998764        -1.047965        -1.059826
 H        -0.086448         0.430865        -1.654823
