19
Iteration:  2299
 O         0.256072        -0.009394         0.935077
 C        -0.914968         0.539984         0.222140
 C        -2.118355         0.702768         1.022950
 C        -1.520837         2.022035         0.636533
 C        -2.327057         2.891405        -0.238587
 C        -2.388866         2.809743        -1.599024
 C        -1.784357         1.694466        -2.422649
 O        -2.097975         0.296603        -1.854618
 C        -1.073824        -0.201371        -1.130467
 H         1.123035         0.002767         0.392769
 H        -3.080188         0.425557         0.445209
 H        -2.096716         0.310730         2.071612
 H        -0.915521         2.588731         1.390389
 H        -2.901735         3.613649         0.351139
 H        -2.669401         3.643237        -2.216500
 H        -2.059464         1.789728        -3.494144
 H        -0.663997         1.896790        -2.345356
 H        -1.400867        -1.265401        -0.933005
 H        -0.144300        -0.188422        -1.615956
