19
Iteration:   725
 O         0.275424         0.080352         0.741815
 C        -0.988435         0.563525         0.300414
 C        -2.173509         0.596064         1.198868
 C        -1.610840         1.880019         0.743166
 C        -2.072795         2.923422        -0.222996
 C        -2.311229         2.788551        -1.577917
 C        -1.896311         1.617654        -2.558723
 O        -2.047569         0.300338        -2.002388
 C        -1.111349        -0.105961        -1.050733
 H         0.686445         0.904271         1.179753
 H        -3.124221         0.234688         0.789737
 H        -2.098564         0.510038         2.264724
 H        -0.874769         2.292015         1.494617
 H        -2.629098         3.847909         0.209755
 H        -2.671131         3.743312        -2.055567
 H        -2.400691         1.709401        -3.473686
 H        -0.859405         1.773590        -2.662392
 H        -1.424655        -1.126817        -0.918985
 H        -0.088901        -0.222268        -1.434073
