19
Iteration:  2719
 O         0.223937         0.013365         0.879416
 C        -0.978871         0.543999         0.227624
 C        -2.150588         0.741378         1.079570
 C        -1.467457         1.977666         0.631016
 C        -2.242464         2.843825        -0.219164
 C        -2.336700         2.798461        -1.544510
 C        -1.790770         1.632002        -2.342806
 O        -2.082259         0.324877        -2.038606
 C        -1.045971        -0.201994        -1.116025
 H         0.808544         0.789443         0.962121
 H        -3.103677         0.393185         0.620211
 H        -2.069077         0.652052         2.207208
 H        -0.875301         2.456412         1.426141
 H        -2.855196         3.691366         0.199354
 H        -3.236373         3.362115        -1.989273
 H        -2.282542         1.751747        -3.287456
 H        -0.795563         1.790938        -2.469308
 H        -1.390526        -1.218128        -0.904600
 H        -0.124443        -0.187889        -1.593078
