19
Iteration:  2267charge 0 multiplicity 1
 O         0.199451         0.090480         0.948727
 C        -1.063106         0.418962         0.323695
 C        -2.155250         0.623465         1.199385
 C        -1.449069         1.909828         0.567976
 C        -2.100696         2.857203        -0.282171
 C        -2.370577         2.717431        -1.594966
 C        -1.852666         1.713515        -2.541041
 O        -2.051517         0.367789        -1.959903
 C        -1.106046        -0.039049        -1.078992
 H         0.861803         0.326441         0.326733
 H        -3.201072         0.289232         0.834155
 H        -1.920858         0.525420         2.309229
 H        -0.828624         2.423577         1.349680
 H        -2.653540         3.599885         0.330038
 H        -3.018970         3.424104        -2.082246
 H        -2.381269         1.647220        -3.499255
 H        -0.754759         1.839716        -2.719796
 H        -1.039444        -1.117214        -1.162990
 H        -0.078752         0.214182        -1.412088
