19
Iteration:  1829
 O         0.137162         0.023751         0.978673
 C        -0.977273         0.540633         0.287322
 C        -2.204516         0.547671         1.038244
 C        -1.439117         1.926126         0.642095
 C        -2.125617         2.932425        -0.216543
 C        -2.214735         2.792846        -1.554984
 C        -2.028687         1.623461        -2.438638
 O        -2.102335         0.252244        -1.959195
 C        -0.949673        -0.012029        -1.174459
 H         0.971437         0.584300         0.942887
 H        -3.174001         0.589949         0.547305
 H        -2.068378         0.312213         2.084215
 H        -0.874573         2.426758         1.446461
 H        -2.468379         3.914672         0.141545
 H        -2.717279         3.642670        -2.165405
 H        -2.924099         1.746797        -3.158058
 H        -1.189945         1.824236        -3.088092
 H        -0.710723        -1.041880        -1.188306
 H         0.055593         0.281343        -1.646384
