19
Iteration:   526
 O         0.302935         0.088794         1.015761
 C        -0.906302         0.461545         0.283776
 C        -2.323166         0.545876         0.833563
 C        -1.582532         1.830919         0.672197
 C        -1.990784         2.828360        -0.268411
 C        -2.097475         2.748645        -1.635648
 C        -2.332491         1.557060        -2.420766
 O        -2.105586         0.353531        -1.765234
 C        -0.808158         0.166989        -1.218054
 H         0.078440         0.156672         1.912001
 H        -3.132861         0.468868         0.086608
 H        -2.688515         0.424693         1.860976
 H        -1.141389         2.206298         1.560129
 H        -1.887738         3.844842         0.142161
 H        -2.365897         3.605687        -2.185257
 H        -3.235302         1.593891        -2.959847
 H        -1.559857         1.686854        -3.227262
 H        -0.360962        -0.826089        -1.330204
 H        -0.179036         1.002255        -1.602341
