19
Iteration:  4399
 O         0.185905         0.041398         1.033864
 C        -0.909259         0.572862         0.330305
 C        -2.254398         0.458137         1.027998
 C        -1.614099         1.869770         0.765377
 C        -2.018476         2.817580        -0.303408
 C        -2.107532         2.769277        -1.658059
 C        -2.153195         1.644597        -2.537529
 O        -2.108000         0.358193        -1.956938
 C        -0.882874         0.103006        -1.124612
 H         0.873516         0.643892         0.977171
 H        -3.171302         0.165806         0.580555
 H        -2.192455         0.254258         2.070080
 H        -1.298566         2.374942         1.680304
 H        -1.957875         3.814382         0.037981
 H        -2.399670         3.718021        -2.012058
 H        -3.180678         1.571468        -2.971581
 H        -1.558477         1.686906        -3.453321
 H        -0.858334        -1.119660        -1.289965
 H        -0.037749         0.590317        -1.626282
