19
Iteration:  1060
 O         0.041333        -0.088643         0.957629
 C        -0.960242         0.529398         0.292135
 C        -2.138208         0.674604         1.250568
 C        -1.286853         1.955870         0.460178
 C        -2.157054         2.851304        -0.285306
 C        -2.564326         2.723641        -1.555900
 C        -1.880331         1.736930        -2.512672
 O        -2.038549         0.392861        -1.936901
 C        -0.908365        -0.099978        -1.175112
 H         0.749275         0.561445         0.875099
 H        -3.192060         0.721038         1.057665
 H        -1.708291         0.463351         2.206913
 H        -0.954741         2.426035         1.382539
 H        -2.515692         3.571669         0.441401
 H        -3.323836         3.355553        -1.994933
 H        -2.378309         1.685669        -3.462184
 H        -0.788652         1.952323        -2.695147
 H        -1.179994        -1.222050        -1.158936
 H         0.173418         0.072174        -1.455502
