19
Iteration:  3755
 O         0.088628        -0.075480         1.101454
 C        -0.871081         0.545938         0.298798
 C        -2.214840         0.667356         0.960255
 C        -1.468290         1.898919         0.636724
 C        -2.111050         2.925266        -0.199369
 C        -2.312640         2.746035        -1.592173
 C        -2.220916         1.589733        -2.466877
 O        -1.983720         0.311727        -2.024243
 C        -0.827147         0.091544        -1.149739
 H         0.913032         0.298746         1.074697
 H        -3.176232         0.382218         0.557466
 H        -2.155336         0.427526         2.024497
 H        -1.004002         2.404806         1.471453
 H        -2.125740         3.856351         0.225964
 H        -2.664764         3.571560        -2.199834
 H        -3.135044         1.563881        -2.989040
 H        -1.482688         1.700592        -3.334666
 H        -0.574854        -1.046132        -1.130634
 H         0.221768         0.398107        -1.563153
