19
Iteration:   443charge 0 multiplicity 1
 O         0.133855        -0.127675         1.128858
 C        -0.915119         0.488965         0.325158
 C        -2.196742         0.704758         0.961410
 C        -1.288288         1.918306         0.645737
 C        -2.020207         2.876038        -0.257913
 C        -2.461868         2.727865        -1.566418
 C        -2.203084         1.627425        -2.532222
 O        -1.984778         0.339568        -2.003110
 C        -0.843948         0.128985        -1.206651
 H         0.343946         0.490059         1.923343
 H        -3.003867         0.422386         0.283979
 H        -2.318442         0.418837         1.997746
 H        -0.926874         2.433860         1.577643
 H        -2.574288         3.624038         0.395040
 H        -3.224233         3.444489        -2.021013
 H        -3.256118         1.473929        -2.954351
 H        -1.365913         1.862704        -3.327768
 H        -0.691268        -0.948851        -1.307790
 H        -0.020312         0.632805        -1.788262
