19
Iteration:  4706
 O         0.117580        -0.061313         1.018601
 C        -0.904241         0.537180         0.239280
 C        -2.149457         0.664608         0.969241
 C        -1.440434         1.882327         0.659403
 C        -2.165479         2.844100        -0.244993
 C        -2.419998         2.768046        -1.555919
 C        -1.902814         1.647937        -2.473016
 O        -2.103594         0.372788        -1.896578
 C        -0.935894         0.029376        -1.194293
 H         1.051146         0.306691         0.874895
 H        -3.161100         0.326574         0.599369
 H        -1.912600         0.337635         2.015402
 H        -0.950908         2.485097         1.478241
 H        -2.578688         3.707198         0.199962
 H        -3.072885         3.611233        -2.017419
 H        -2.500381         1.581040        -3.456280
 H        -0.736965         1.729653        -2.746534
 H        -1.101395        -1.029757        -0.828214
 H        -0.059565         0.395122        -1.646382
