19
Iteration:  1925charge 0 multiplicity 1
 O         0.245305         0.050324         0.932740
 C        -0.986423         0.456206         0.303656
 C        -2.148606         0.610940         1.167980
 C        -1.475702         1.862314         0.616650
 C        -2.242326         2.830659        -0.307074
 C        -2.384945         2.767945        -1.638054
 C        -1.779247         1.693074        -2.502620
 O        -2.123440         0.413975        -1.915082
 C        -1.072730        -0.039661        -1.068114
 H         0.945487         0.181567         0.194037
 H        -3.217073         0.512868         0.753491
 H        -1.985051         0.314511         2.219539
 H        -0.768107         2.396542         1.279346
 H        -2.376727         3.856023         0.171796
 H        -3.154965         3.496140        -2.029113
 H        -2.067961         1.801971        -3.547761
 H        -0.685515         1.889148        -2.417474
 H        -1.270455        -1.129037        -1.026957
 H        -0.109835        -0.006051        -1.525398
