19
Iteration:  2864charge 0 multiplicity 1
 O         0.099244        -0.074017         1.097861
 C        -0.947456         0.576739         0.273196
 C        -2.254877         0.577570         0.962403
 C        -1.485726         1.924044         0.775045
 C        -1.897119         2.896025        -0.312517
 C        -2.150258         2.719748        -1.627851
 C        -2.460818         1.575754        -2.478921
 O        -1.951178         0.246926        -2.004590
 C        -0.761118         0.222522        -1.175219
 H         0.353075         0.679632         1.603687
 H        -3.194397         0.645817         0.522720
 H        -2.152995         0.011618         1.881430
 H        -1.217967         2.359263         1.829164
 H        -1.923095         3.911112        -0.076372
 H        -2.558750         3.525378        -2.167083
 H        -3.531764         1.551716        -2.483506
 H        -2.009324         1.532556        -3.532498
 H        -0.392030        -0.870744        -1.144418
 H        -0.059024         0.887694        -1.699504
