19
Iteration:   945
 O         0.252350         0.094182         1.063680
 C        -0.914909         0.469061         0.340712
 C        -2.292621         0.350146         0.933350
 C        -1.558146         1.842428         0.771304
 C        -1.789800         2.830094        -0.326121
 C        -2.092434         2.819350        -1.661720
 C        -2.392243         1.525985        -2.582427
 O        -2.184263         0.338528        -1.828822
 C        -0.891608         0.297524        -1.178674
 H         0.571487         0.768749         1.704115
 H        -3.123151         0.089770         0.234727
 H        -2.482935         0.179657         2.005373
 H        -1.304661         2.285237         1.714058
 H        -1.436720         3.771659        -0.041715
 H        -2.095269         3.733626        -2.240522
 H        -3.395448         1.549421        -2.978850
 H        -1.739714         1.535249        -3.497884
 H        -0.493601        -0.665276        -1.379092
 H        -0.221899         1.125766        -1.607567
