19
Iteration:  4003charge 0 multiplicity 1
 O         0.247757         0.083102         1.047036
 C        -0.935481         0.559945         0.362106
 C        -2.232582         0.448544         0.989342
 C        -1.704204         1.870053         0.750631
 C        -2.023222         2.828021        -0.303698
 C        -2.028643         2.853638        -1.613926
 C        -2.189416         1.656736        -2.520270
 O        -2.148018         0.309740        -1.913093
 C        -0.915883         0.063197        -1.190622
 H         0.994078         0.731244         0.786078
 H        -2.934618         0.196788         0.204988
 H        -2.363634         0.005280         1.968800
 H        -1.095468         2.252579         1.564514
 H        -1.976677         3.834684         0.081417
 H        -2.404299         3.705564        -2.012438
 H        -3.151188         1.678602        -3.067087
 H        -1.381682         1.434964        -3.290969
 H        -0.833006        -0.974304        -1.189603
 H         0.085991         0.406951        -1.641995
