19
Iteration:  3136charge 0 multiplicity 1
 O         0.189466         0.143017         0.964861
 C        -0.994509         0.471447         0.294397
 C        -2.229954         0.661967         1.150222
 C        -1.411583         1.840643         0.671764
 C        -2.073154         2.866739        -0.256938
 C        -2.447407         2.745476        -1.506110
 C        -1.931016         1.683880        -2.422442
 O        -1.964730         0.355777        -2.098309
 C        -1.123540        -0.147712        -1.149628
 H         0.923090         0.453279         0.312179
 H        -3.091651         0.442560         0.590069
 H        -2.171067         0.317960         2.180776
 H        -0.588798         2.313279         1.298163
 H        -2.238226         3.832442         0.162105
 H        -2.907479         3.653106        -2.025662
 H        -2.518927         1.631550        -3.424408
 H        -0.855909         1.974633        -2.485231
 H        -1.402092        -1.193803        -1.077941
 H        -0.028035         0.044621        -1.548569
