19
Iteration:  3306charge 0 multiplicity 1
 O         0.023474        -0.154088         1.082092
 C        -0.908069         0.504514         0.347632
 C        -2.291397         0.646324         0.844778
 C        -1.475222         1.945756         0.796369
 C        -1.785275         2.969391        -0.253600
 C        -2.306877         2.708149        -1.572755
 C        -2.473121         1.520617        -2.531114
 O        -1.969682         0.250036        -1.932372
 C        -0.661990         0.306576        -1.182524
 H         0.850585         0.398227         1.097956
 H        -3.062741         0.350853         0.159801
 H        -2.329863         0.076912         1.756197
 H        -1.203745         2.360829         1.849166
 H        -1.744930         4.009815         0.042828
 H        -2.506260         3.566035        -2.115742
 H        -3.612008         1.272675        -2.756151
 H        -1.844227         1.726703        -3.408885
 H        -0.282054        -0.731450        -1.430590
 H        -0.115009         1.127096        -1.746035
