19
Iteration:  1660
 O         0.027616        -0.127508         1.303411
 C        -0.895348         0.472766         0.287638
 C        -2.191751         0.581578         0.942234
 C        -1.395307         1.887666         0.668641
 C        -1.887119         2.920342        -0.311839
 C        -2.330077         2.754246        -1.606248
 C        -2.368817         1.576325        -2.537694
 O        -2.073032         0.271620        -1.910569
 C        -0.745315         0.319362        -1.284709
 H         0.921625         0.192322         0.905332
 H        -3.043564         0.532389         0.329999
 H        -2.202375         0.335143         1.974432
 H        -0.746539         2.289438         1.508906
 H        -2.128372         3.963310         0.000925
 H        -2.665783         3.683821        -2.085093
 H        -3.412198         1.341484        -2.955140
 H        -1.724225         1.731067        -3.437956
 H        -0.419913        -0.653926        -1.500177
 H         0.094684         1.039160        -1.687114
