19
Iteration:  4743
 O         0.051705        -0.120755         1.101831
 C        -0.927540         0.429455         0.267776
 C        -2.221702         0.774507         0.984637
 C        -1.354192         1.909722         0.586860
 C        -2.096265         2.921759        -0.226867
 C        -2.528998         2.743037        -1.491364
 C        -2.100576         1.635350        -2.500713
 O        -1.923758         0.340721        -2.003688
 C        -0.813110         0.069235        -1.145618
 H         0.892043         0.288634         0.632457
 H        -3.127927         0.561105         0.530005
 H        -2.077161         0.549361         1.991109
 H        -0.819085         2.278442         1.418623
 H        -2.149612         3.862777         0.426107
 H        -3.240254         3.364109        -1.921875
 H        -2.837228         1.535133        -3.251377
 H        -1.227309         2.029418        -3.019133
 H        -0.848924        -1.046010        -1.247392
 H         0.081539         0.175367        -1.600208
