19
Iteration:  2056
 O         0.046400        -0.070608         1.201818
 C        -0.866969         0.532472         0.265042
 C        -2.164387         0.527531         0.927686
 C        -1.446847         1.851472         0.608419
 C        -1.959068         2.976066        -0.339355
 C        -2.263346         2.854517        -1.651119
 C        -2.331550         1.565294        -2.421942
 O        -2.047036         0.289865        -1.841834
 C        -0.792841         0.173544        -1.246053
 H         0.940237         0.270257         1.042722
 H        -3.047353         0.199859         0.383433
 H        -2.081652         0.323958         2.030524
 H        -1.166224         2.306252         1.601612
 H        -2.443848         3.872795         0.154207
 H        -2.769958         3.636227        -2.376481
 H        -3.295774         1.500790        -2.832002
 H        -1.509621         1.845999        -3.309658
 H        -0.671394        -0.997298        -1.238394
 H         0.142469         0.676611        -1.697441
