19
Iteration:  1612
 O         0.208705         0.015911         0.915247
 C        -0.939693         0.582451         0.342124
 C        -2.373864         0.512104         0.998095
 C        -1.441903         1.906151         0.690350
 C        -1.925060         2.960215        -0.273357
 C        -2.232140         2.780928        -1.561707
 C        -2.125710         1.546050        -2.576985
 O        -2.103883         0.349094        -1.859788
 C        -0.928898         0.051208        -1.072984
 H         0.974857         0.606460         0.922205
 H        -3.105649         0.234751         0.175510
 H        -2.403508         0.125152         2.034999
 H        -1.156285         2.242808         1.649677
 H        -2.224593         3.890665         0.209976
 H        -2.886808         3.526080        -2.096467
 H        -2.955394         1.399852        -3.173848
 H        -1.304322         1.710887        -3.273238
 H        -0.889585        -1.112288        -1.147502
 H         0.069370         0.387129        -1.509439
