19
Iteration:  1724
 O         0.099646        -0.051780         1.003518
 C        -0.976270         0.613907         0.279702
 C        -2.274178         0.543955         0.860530
 C        -1.551920         1.942711         0.672217
 C        -1.914669         2.969001        -0.235647
 C        -2.056499         2.777910        -1.590239
 C        -2.398543         1.536010        -2.322210
 O        -2.011704         0.148334        -1.976577
 C        -0.728044         0.195081        -1.182921
 H         0.802349         0.553737         1.268138
 H        -3.042258         0.219198         0.201527
 H        -2.443427         0.457534         1.896045
 H        -1.268874         2.257904         1.718387
 H        -1.984306         3.964957         0.291781
 H        -2.320593         3.707540        -2.189028
 H        -3.422697         1.568728        -2.213006
 H        -2.208104         1.774645        -3.357478
 H        -0.508851        -0.876854        -0.969319
 H        -0.017319         0.791808        -1.638630
