19
Iteration:  4336charge 0 multiplicity 1
 O         0.106107        -0.110215         1.067992
 C        -0.875892         0.550568         0.227318
 C        -2.222182         0.770138         0.959513
 C        -1.348831         1.998905         0.609630
 C        -2.131466         2.918886        -0.201341
 C        -2.605458         2.686984        -1.499742
 C        -1.918699         1.661616        -2.495564
 O        -2.004276         0.355924        -1.971862
 C        -0.897682        -0.117905        -1.166697
 H         0.980134        -0.184349         0.795001
 H        -3.141651         0.789895         0.430366
 H        -2.206944         0.487597         2.001618
 H        -0.763129         2.323105         1.418822
 H        -2.750289         3.829577         0.314936
 H        -3.191862         3.356979        -1.995153
 H        -2.641363         1.779162        -3.275023
 H        -0.887480         2.021315        -2.593142
 H        -0.956285        -1.094528        -0.922844
 H         0.116960         0.046272        -1.688718
