19
Iteration:  1471charge 0 multiplicity 1
 O         0.151059         0.058837         1.084261
 C        -0.953174         0.495417         0.233213
 C        -2.158247         0.733853         1.126488
 C        -1.334374         1.991206         0.625369
 C        -2.149452         2.930735        -0.201702
 C        -2.452380         2.772745        -1.448906
 C        -1.886883         1.676464        -2.414175
 O        -2.008189         0.246263        -2.176841
 C        -1.118590        -0.217717        -1.230384
 H         1.022648         0.187802         0.565300
 H        -3.078639         0.817704         0.523161
 H        -2.192255         0.501997         2.254086
 H        -0.595278         2.446389         1.259206
 H        -2.754921         3.664402         0.329233
 H        -3.288037         3.428096        -1.761584
 H        -2.474554         1.960629        -3.361320
 H        -0.812948         1.807507        -2.629396
 H        -1.230633        -1.275157        -1.186924
 H        -0.058473        -0.096491        -1.570282
