19
Iteration:  4557charge 0 multiplicity 1
 O         0.065071        -0.056279         1.204761
 C        -0.914166         0.521570         0.237560
 C        -2.171588         0.690853         0.944066
 C        -1.362014         1.938810         0.612524
 C        -2.099292         2.935813        -0.207521
 C        -2.453375         2.722293        -1.490433
 C        -2.082743         1.609930        -2.516777
 O        -2.024249         0.324048        -2.014827
 C        -0.869778         0.002534        -1.216242
 H         1.019523        -0.043843         0.839308
 H        -3.150838         0.593049         0.472540
 H        -2.032298         0.217961         1.927903
 H        -0.755995         2.360910         1.434143
 H        -2.622051         3.941281         0.243389
 H        -3.028464         3.623705        -1.927336
 H        -2.760000         1.581961        -3.361432
 H        -1.160419         1.935917        -3.069073
 H        -0.626161        -1.038850        -1.247170
 H         0.080129         0.397437        -1.481951
