19
Iteration:  3652charge 0 multiplicity 1
 O         0.188212         0.024132         1.053088
 C        -0.925095         0.487173         0.364543
 C        -2.370852         0.498096         0.915198
 C        -1.642978         1.790875         0.665921
 C        -1.798159         2.865964        -0.291112
 C        -2.121984         2.767538        -1.643526
 C        -2.428770         1.580542        -2.437376
 O        -2.044338         0.292571        -1.914758
 C        -0.733682         0.237182        -1.141000
 H         0.871332         0.797024         1.055004
 H        -3.208381         0.327502         0.233745
 H        -2.625574         0.489046         1.969744
 H        -1.378168         2.203699         1.673969
 H        -1.537459         3.970921        -0.051353
 H        -2.346227         3.756429        -2.130027
 H        -3.496708         1.464605        -2.574175
 H        -1.846043         1.684302        -3.426634
 H        -0.202913        -0.684041        -1.364824
 H        -0.085198         1.100192        -1.563844
