19
Iteration:  2908
 O         0.150347        -0.067713         1.062491
 C        -1.012546         0.443266         0.332879
 C        -2.375787         0.676021         0.826197
 C        -1.504103         1.973634         0.769728
 C        -1.816519         2.915770        -0.335181
 C        -2.276351         2.766892        -1.536069
 C        -2.384586         1.495013        -2.393211
 O        -1.952719         0.237901        -1.952071
 C        -0.717654         0.224242        -1.180030
 H         0.902880         0.422627         0.792785
 H        -3.250971         0.571871         0.263673
 H        -2.445381         0.226947         1.774063
 H        -0.975610         2.412503         1.704346
 H        -1.969855         3.910054         0.030265
 H        -2.669676         3.572586        -2.056634
 H        -3.312927         1.169510        -2.628186
 H        -1.815120         1.723172        -3.370427
 H        -0.271635        -0.808934        -1.264817
 H        -0.113535         1.047873        -1.596072
