19
Iteration:  1300charge 0 multiplicity 1
 O         0.038070        -0.103725         1.105846
 C        -0.919539         0.484640         0.291208
 C        -2.268544         0.533504         0.930120
 C        -1.485801         1.925219         0.718119
 C        -1.778989         2.962214        -0.339209
 C        -2.301062         2.706614        -1.623028
 C        -2.393701         1.459998        -2.498012
 O        -2.019454         0.331937        -1.849067
 C        -0.734811         0.341091        -1.196403
 H         0.865530         0.357869         1.178394
 H        -3.204076         0.406669         0.335426
 H        -2.202834         0.220837         1.992291
 H        -1.044959         2.201142         1.638739
 H        -1.637223         3.973354        -0.048681
 H        -2.459286         3.696788        -2.163698
 H        -3.400956         1.286183        -2.777193
 H        -1.907182         1.809033        -3.451906
 H        -0.488100        -0.746161        -1.313754
 H        -0.045184         1.093264        -1.662518
