19
Iteration:  4903charge 0 multiplicity 1
 O         0.138183        -0.065354         0.965228
 C        -0.963638         0.539831         0.338263
 C        -2.290539         0.659925         0.976441
 C        -1.524054         1.921816         0.766903
 C        -2.045315         2.981099        -0.178787
 C        -2.252549         2.752390        -1.504785
 C        -2.174430         1.565732        -2.529700
 O        -2.018908         0.228910        -1.962371
 C        -0.813333         0.084324        -1.223467
 H         0.967917         0.442450         0.635317
 H        -3.078900         0.520197         0.288479
 H        -2.397408         0.303743         1.967201
 H        -1.064495         2.223126         1.652484
 H        -2.063142         4.014587         0.267223
 H        -2.388698         3.657783        -2.191871
 H        -3.227541         1.544123        -3.037523
 H        -1.321207         1.875926        -3.278800
 H        -0.452656        -1.007881        -1.184509
 H         0.065775         0.656913        -1.674805
