19
Iteration:   368
 O         0.290127         0.334039         0.932826
 C        -0.958594         0.472344         0.333821
 C        -2.274063         0.383344         1.195651
 C        -1.615430         1.824993         0.812517
 C        -2.059703         2.767043        -0.288761
 C        -2.207847         2.789223        -1.616168
 C        -2.018956         1.726139        -2.599741
 O        -2.041864         0.435215        -2.015750
 C        -1.055760        -0.118700        -1.104205
 H         0.856977        -0.249309         0.459828
 H        -3.160215         0.342221         0.577824
 H        -2.181078         0.025687         2.212470
 H        -1.116394         2.391479         1.661041
 H        -2.250259         3.764666         0.162982
 H        -2.115273         3.807267        -2.108906
 H        -2.949253         1.715495        -3.260256
 H        -1.150483         1.775204        -3.215313
 H        -1.315492        -1.214466        -1.071614
 H        -0.119033         0.131585        -1.664770
