19
Iteration:  3096
 O         0.170013        -0.074005         0.934252
 C        -0.979164         0.547391         0.203644
 C        -2.059199         0.730966         1.155671
 C        -1.431787         2.007444         0.645132
 C        -2.294980         2.821901        -0.264787
 C        -2.448830         2.730127        -1.586093
 C        -1.732404         1.654455        -2.404992
 O        -2.073842         0.416489        -1.987342
 C        -1.100964        -0.117017        -1.156282
 H         1.071742         0.168000         0.765265
 H        -3.115740         0.436209         0.897823
 H        -1.808831         0.395665         2.224831
 H        -0.743548         2.393598         1.329210
 H        -2.957962         3.557065         0.377705
 H        -3.122830         3.524795        -2.079623
 H        -2.124351         1.778014        -3.493120
 H        -0.600793         1.788263        -2.374312
 H        -1.270641        -1.234069        -1.076734
 H        -0.117631         0.130566        -1.613289
