19
Iteration:  3219
 O         0.187601         0.027761         1.090234
 C        -0.924161         0.488926         0.399194
 C        -2.254649         0.361690         0.967216
 C        -1.534025         1.831243         0.671597
 C        -1.902475         2.881905        -0.398752
 C        -2.256892         2.843207        -1.664394
 C        -2.206067         1.653999        -2.517100
 O        -2.138839         0.368841        -1.823982
 C        -0.850997         0.143819        -1.176580
 H         0.885220         0.620437         0.949364
 H        -3.078328         0.280030         0.314066
 H        -2.473221         0.127710         2.005028
 H        -1.062331         2.271455         1.579533
 H        -1.915425         3.865880         0.044289
 H        -2.526430         3.736567        -2.080672
 H        -3.167371         1.619088        -3.026225
 H        -1.529664         1.826278        -3.346803
 H        -0.539212        -0.939519        -1.256785
 H        -0.038137         0.702553        -1.585827
