19
Iteration:  4783
 O         0.114037        -0.012127         1.087488
 C        -0.951701         0.511625         0.259868
 C        -2.265300         0.628587         1.046795
 C        -1.477463         1.882239         0.719520
 C        -2.033364         2.929537        -0.193486
 C        -2.233630         2.757974        -1.507334
 C        -2.220174         1.580184        -2.549072
 O        -1.976708         0.262200        -2.072454
 C        -0.866084         0.116478        -1.221745
 H         0.936487         0.340285         0.840236
 H        -3.180444         0.487944         0.488228
 H        -2.212601         0.313589         2.093121
 H        -0.996679         2.223128         1.620272
 H        -2.045507         3.956516         0.156744
 H        -2.722377         3.683172        -1.954980
 H        -3.254152         1.505320        -3.027189
 H        -1.397331         1.783604        -3.259529
 H        -0.646434        -0.992900        -1.069495
 H         0.079736         0.730673        -1.561216
