19
Iteration:  1353
 O         0.212832         0.183940         0.995310
 C        -0.976721         0.498560         0.327316
 C        -2.403959         0.448555         0.903999
 C        -1.631104         1.830115         0.637159
 C        -1.749337         2.921255        -0.304736
 C        -2.064015         2.793206        -1.563728
 C        -2.344848         1.583331        -2.318044
 O        -2.091274         0.232554        -1.907230
 C        -0.875347         0.131179        -1.159623
 H         0.888508         0.825645         0.837294
 H        -3.090912         0.144998         0.097830
 H        -2.424627         0.079839         1.956643
 H        -1.406665         2.205476         1.610718
 H        -1.482973         3.821448         0.165148
 H        -2.092915         3.731711        -2.165424
 H        -3.381338         1.465111        -2.733205
 H        -1.645472         1.740702        -3.273212
 H        -0.541519        -0.886504        -1.252298
 H        -0.039472         0.649482        -1.693062
