19
Iteration:  2213
 O         0.143316         0.013138         0.925955
 C        -0.946532         0.542218         0.289587
 C        -2.259121         0.565077         1.058701
 C        -1.442718         1.901023         0.687393
 C        -2.104335         2.975279        -0.249001
 C        -2.225082         2.815891        -1.611358
 C        -2.075694         1.622973        -2.523547
 O        -2.059076         0.288300        -1.921117
 C        -0.890392        -0.018766        -1.085633
 H         0.827376         0.653872         1.002728
 H        -3.067088         0.306505         0.342107
 H        -2.475629         0.153263         2.106341
 H        -0.820733         2.349376         1.495085
 H        -2.383897         3.901948         0.260794
 H        -2.768510         3.490452        -2.229481
 H        -2.979484         1.484697        -2.968307
 H        -1.305232         1.655823        -3.231824
 H        -0.958809        -1.078037        -0.915108
 H         0.098015         0.332964        -1.512476
