19
Iteration:  3899charge 0 multiplicity 1
 O         0.136714        -0.030067         0.902776
 C        -1.052417         0.525595         0.297254
 C        -2.155754         0.775774         1.251394
 C        -1.393059         1.940985         0.547853
 C        -2.289482         2.801161        -0.190936
 C        -2.488185         2.715362        -1.542907
 C        -1.791366         1.752342        -2.425115
 O        -1.926322         0.318758        -2.103596
 C        -1.045828        -0.119567        -1.126066
 H         0.812131         0.229991         0.332155
 H        -3.219269         0.661475         0.987937
 H        -1.840667         0.463441         2.266300
 H        -0.639731         2.414124         1.103741
 H        -2.577824         3.746172         0.357903
 H        -2.997312         3.571329        -2.041787
 H        -2.121029         1.752040        -3.468838
 H        -0.677171         1.999838        -2.469264
 H        -1.354210        -1.215391        -0.924650
 H         0.022407        -0.026291        -1.452591
