19
Iteration:  2297
 O         0.259729        -0.011924         0.926193
 C        -0.907250         0.552116         0.215572
 C        -2.151202         0.704661         1.051222
 C        -1.524765         2.016547         0.645314
 C        -2.313516         2.881822        -0.236532
 C        -2.402620         2.817791        -1.602941
 C        -1.788928         1.688556        -2.431131
 O        -2.101766         0.307112        -1.858254
 C        -1.062305        -0.205412        -1.121036
 H         1.101447        -0.027569         0.392116
 H        -3.008153         0.517947         0.491492
 H        -2.134681         0.337042         2.058509
 H        -0.936810         2.601186         1.323176
 H        -2.878637         3.515460         0.355396
 H        -2.611229         3.688671        -2.208603
 H        -2.025070         1.777980        -3.535604
 H        -0.681996         1.904484        -2.378139
 H        -1.272581        -1.321653        -0.968987
 H        -0.093291        -0.267713        -1.636853
