19
Iteration:  2881
 O         0.023731        -0.079787         0.978539
 C        -0.944089         0.582288         0.314120
 C        -2.283622         0.615357         0.990619
 C        -1.520092         1.944885         0.709725
 C        -1.906164         2.949803        -0.263698
 C        -2.211038         2.754141        -1.590220
 C        -2.404167         1.466928        -2.396852
 O        -1.898555         0.235401        -2.007372
 C        -0.733042         0.235500        -1.177318
 H         0.693087         0.340598         1.455586
 H        -3.110452         0.212197         0.287561
 H        -2.422757         0.350039         2.083899
 H        -0.920994         2.320452         1.478625
 H        -1.856103         4.038475         0.073054
 H        -2.173066         3.704879        -2.266800
 H        -3.479389         1.005616        -2.382210
 H        -1.987344         1.732757        -3.359279
 H        -0.551373        -0.810568        -1.085232
 H         0.019800         0.940871        -1.641977
