19
Iteration:  2748
 O         0.218353         0.113823         0.947038
 C        -1.093276         0.462216         0.275758
 C        -2.207681         0.587662         1.231093
 C        -1.468876         1.867637         0.648088
 C        -2.073448         2.847703        -0.275927
 C        -2.399829         2.786266        -1.556631
 C        -1.885061         1.602127        -2.553147
 O        -2.053400         0.373762        -2.017890
 C        -1.042411        -0.057099        -1.115416
 H         0.746550         0.852720         0.723941
 H        -3.134743         0.336940         0.865899
 H        -2.035105         0.364442         2.248398
 H        -0.757108         2.264560         1.290270
 H        -2.018767         3.851898         0.089449
 H        -3.040725         3.588599        -1.876808
 H        -2.359134         1.619685        -3.594589
 H        -0.707089         1.928783        -2.664200
 H        -1.132901        -1.132841        -1.047354
 H         0.025340         0.281717        -1.528454
