19
Iteration:   265
 O         0.238795        -0.077566         1.087848
 C        -0.902246         0.431195         0.192998
 C        -2.132815         0.718109         1.061310
 C        -1.418534         1.882206         0.564733
 C        -2.225279         2.908965        -0.222014
 C        -2.620600         2.743456        -1.506133
 C        -1.878372         1.760996        -2.380771
 O        -2.067496         0.381396        -2.019332
 C        -0.967728        -0.108599        -1.273333
 H         0.672616         0.669803         1.657837
 H        -3.164770         0.652665         0.607074
 H        -2.155148         0.417596         2.111870
 H        -0.753089         2.262929         1.301317
 H        -2.652050         3.754321         0.378289
 H        -3.000501         3.610511        -2.034305
 H        -2.136098         1.874428        -3.417253
 H        -0.812524         1.800716        -2.525920
 H        -0.827750        -1.182135        -1.326229
 H         0.016891         0.154808        -1.872221
