19
Iteration:  1219
 O         0.207012         0.030911         0.995984
 C        -0.991887         0.517419         0.280369
 C        -2.212829         0.646096         1.076839
 C        -1.413477         1.938352         0.554949
 C        -2.080546         2.964490        -0.206457
 C        -2.325057         2.766552        -1.508873
 C        -2.021487         1.560561        -2.439626
 O        -2.067990         0.258087        -2.029244
 C        -1.038034        -0.034494        -1.142983
 H         0.889081         0.666149         1.038140
 H        -3.083673         0.314731         0.546311
 H        -2.283527         0.386147         2.136807
 H        -0.803173         2.273061         1.453807
 H        -2.397341         3.987698         0.203937
 H        -2.629256         3.622123        -2.055373
 H        -2.753839         1.543643        -3.324264
 H        -1.008075         1.863056        -2.821267
 H        -0.910088        -1.079811        -1.231467
 H        -0.062065         0.404436        -1.564902
