19
Iteration:   712charge 0 multiplicity 1
 O         0.314279         0.010447         0.813289
 C        -1.003079         0.486860         0.341304
 C        -2.205195         0.642948         1.296073
 C        -1.525000         1.964972         0.668405
 C        -2.167362         2.907290        -0.290809
 C        -2.372399         2.776092        -1.610344
 C        -1.838906         1.672418        -2.426975
 O        -2.124364         0.307967        -2.049858
 C        -1.072558        -0.133049        -1.157916
 H         0.853814         0.653255         1.214497
 H        -3.130189         0.297108         0.813361
 H        -2.022406         0.305448         2.304589
 H        -1.067187         2.544458         1.521802
 H        -2.290617         3.959124         0.198237
 H        -2.808207         3.620861        -2.183502
 H        -2.211094         1.694037        -3.418339
 H        -0.796253         1.788708        -2.611942
 H        -0.968769        -1.190416        -1.066553
 H        -0.203181         0.335583        -1.612235
