19
Iteration:    58charge 0 multiplicity 1
 O         0.041745         0.006827         1.129658
 C        -0.895273         0.563044         0.226876
 C        -2.212710         0.516460         0.931382
 C        -1.414840         1.874527         0.739103
 C        -1.892468         2.892494        -0.222275
 C        -2.471116         2.667605        -1.449289
 C        -2.225052         1.628427        -2.507213
 O        -1.995318         0.334932        -1.981714
 C        -0.750901         0.209891        -1.308403
 H         0.058697        -0.949425         0.915521
 H        -3.195420         0.614800         0.441221
 H        -2.104740         0.083401         1.925483
 H        -0.983726         2.370619         1.639642
 H        -2.031577         3.932292         0.201462
 H        -2.986696         3.621451        -1.852318
 H        -3.140131         1.538699        -3.162440
 H        -1.387556         1.977793        -3.119497
 H        -0.441359        -0.846955        -1.315753
 H         0.007407         0.878827        -1.736580
