19
Iteration:  4097
 O         0.060116        -0.108636         1.148023
 C        -0.927019         0.534909         0.276922
 C        -2.267766         0.621937         0.883716
 C        -1.492660         1.963661         0.748912
 C        -1.853149         2.927937        -0.259956
 C        -2.338758         2.768603        -1.554997
 C        -2.341569         1.535385        -2.472017
 O        -1.961355         0.277563        -1.959863
 C        -0.745178         0.171724        -1.224909
 H         0.889809         0.381947         1.042579
 H        -3.129425         0.514331         0.244445
 H        -2.340556         0.188125         1.873468
 H        -1.097821         2.443081         1.670819
 H        -2.050228         4.011105         0.134934
 H        -2.771595         3.683018        -2.149142
 H        -3.292357         1.151734        -2.918170
 H        -1.653277         1.799320        -3.371936
 H        -0.436939        -0.987829        -1.228793
 H         0.082760         0.734012        -1.850746
