19
Iteration:  3881charge 0 multiplicity 1
 O         0.194763         0.090648         0.862941
 C        -1.037330         0.435802         0.311910
 C        -2.139582         0.682149         1.313917
 C        -1.510002         1.911125         0.632260
 C        -2.194334         2.894643        -0.254691
 C        -2.379809         2.757676        -1.566021
 C        -1.703421         1.697509        -2.426505
 O        -2.047162         0.374373        -2.117863
 C        -1.115084        -0.189291        -1.146454
 H         0.903851         0.385647         0.353300
 H        -3.150235         0.405021         0.974729
 H        -2.042240         0.687184         2.385589
 H        -0.747794         2.348953         1.373985
 H        -2.996290         3.521274         0.344093
 H        -3.240974         3.279255        -2.063671
 H        -2.009153         1.694997        -3.518948
 H        -0.626878         1.867168        -2.440130
 H        -1.195255        -1.237771        -1.076832
 H        -0.117889         0.253549        -1.413233
