19
Iteration:  2472charge 0 multiplicity 1
 O         0.117911        -0.037702         1.090042
 C        -0.868364         0.595232         0.356288
 C        -2.260756         0.547958         0.951195
 C        -1.553419         1.892824         0.722150
 C        -1.844068         2.985508        -0.320526
 C        -2.233354         2.810363        -1.608049
 C        -2.369424         1.479873        -2.476320
 O        -2.073798         0.218671        -1.978561
 C        -0.768313         0.184032        -1.191707
 H         0.668412         0.603817         1.474468
 H        -2.913228         0.253177         0.072238
 H        -2.232619         0.166152         1.957758
 H        -1.125469         2.276348         1.737469
 H        -2.049272         3.963178         0.122243
 H        -2.643458         3.746404        -2.047385
 H        -3.484014         1.585764        -2.635029
 H        -1.634569         1.707522        -3.375474
 H        -0.431757        -0.910120        -1.192151
 H         0.098719         0.673494        -1.870903
