19
Iteration:  4333
 O         0.113208        -0.121873         1.082588
 C        -0.870774         0.563654         0.234029
 C        -2.213575         0.763235         0.965476
 C        -1.340229         2.024757         0.624011
 C        -2.173994         2.917734        -0.212752
 C        -2.591849         2.684529        -1.508002
 C        -1.912485         1.695231        -2.492010
 O        -1.998620         0.352604        -1.975462
 C        -0.924433        -0.139365        -1.198327
 H         1.086876        -0.201086         0.706253
 H        -3.145970         0.801671         0.441652
 H        -2.206696         0.396685         1.980735
 H        -0.747312         2.419898         1.516910
 H        -2.577566         3.758728         0.269597
 H        -3.321452         3.386661        -2.002262
 H        -2.605783         1.732168        -3.361599
 H        -0.882706         1.987482        -2.595674
 H        -0.963234        -1.260290        -0.780809
 H         0.042708         0.087251        -1.616898
