19
Iteration:  1364
 O         0.156589         0.203647         0.998894
 C        -0.972600         0.530188         0.286636
 C        -2.299795         0.456043         0.873334
 C        -1.626252         1.738526         0.732057
 C        -1.715404         2.846952        -0.283774
 C        -2.165227         2.890036        -1.584048
 C        -2.307996         1.579298        -2.469773
 O        -2.091986         0.263821        -1.843438
 C        -0.856588         0.087969        -1.120309
 H         0.842935         0.876009         0.638450
 H        -3.154324         0.093793         0.289901
 H        -2.585889         0.305144         1.952131
 H        -1.203802         2.009075         1.670271
 H        -1.495891         3.816661         0.038380
 H        -2.159901         3.853866        -2.193332
 H        -3.377626         1.655483        -2.826434
 H        -1.635295         1.572471        -3.440007
 H        -0.724234        -0.975525        -1.019963
 H        -0.028372         0.681600        -1.577189
