19
Iteration:  2996
 O         0.278292         0.104242         0.892472
 C        -0.943912         0.536915         0.368861
 C        -2.312107         0.529392         1.079798
 C        -1.555669         1.860313         0.728224
 C        -2.001226         2.848462        -0.281530
 C        -2.236438         2.768382        -1.612242
 C        -2.025173         1.593502        -2.557088
 O        -2.123777         0.382254        -1.897605
 C        -0.983718        -0.034652        -1.114704
 H         0.887708         0.806220         0.844978
 H        -3.067594         0.374121         0.320458
 H        -2.598110         0.239638         2.042150
 H        -1.057015         2.281238         1.614696
 H        -2.142590         3.846126         0.157529
 H        -2.690710         3.690083        -1.964871
 H        -2.789951         1.648202        -3.340804
 H        -0.992892         1.680226        -2.952484
 H        -0.940159        -1.131724        -1.034004
 H        -0.195352         0.470524        -1.717833
