19
Iteration:  2670charge 0 multiplicity 1
 O         0.270733         0.123280         0.978482
 C        -0.968141         0.427360         0.288225
 C        -2.196671         0.651117         1.242027
 C        -1.455209         1.804777         0.490779
 C        -2.201784         2.903291        -0.241048
 C        -2.471408         2.818112        -1.605324
 C        -1.747509         1.688943        -2.493695
 O        -2.104653         0.369483        -1.984244
 C        -1.097208        -0.129368        -1.109849
 H         1.027842        -0.065853         0.376301
 H        -3.224975         0.387077         0.983102
 H        -1.960588         0.529281         2.278156
 H        -0.915796         2.381831         1.290200
 H        -2.556268         3.752101         0.298828
 H        -3.154539         3.507324        -2.024383
 H        -2.093209         1.804910        -3.552612
 H        -0.642600         1.873638        -2.483855
 H        -1.197000        -1.223002        -1.081966
 H        -0.103538         0.120064        -1.624903
