19
Iteration:  2562
 O         0.153169         0.009718         1.154415
 C        -0.884504         0.472930         0.241302
 C        -2.276470         0.531535         0.851458
 C        -1.470750         1.917374         0.697123
 C        -1.993045         2.911696        -0.307893
 C        -2.289736         2.859198        -1.635618
 C        -2.235686         1.582157        -2.492401
 O        -2.056324         0.356807        -1.791815
 C        -0.792165         0.029470        -1.204451
 H         0.852863         0.627113         1.090806
 H        -3.193231         0.333842         0.290685
 H        -2.237440         0.344334         1.950324
 H        -0.944547         2.301129         1.554577
 H        -2.025180         3.938941         0.093533
 H        -2.778683         3.722343        -2.072097
 H        -3.307269         1.333989        -2.733161
 H        -1.683865         1.558023        -3.531217
 H        -0.860675        -1.067923        -1.162533
 H         0.125879         0.309625        -1.845435
