19
Iteration:   425charge 0 multiplicity 1
 O         0.054285        -0.100912         1.063347
 C        -0.824693         0.613119         0.208415
 C        -2.142532         0.597498         0.896599
 C        -1.454153         1.900342         0.657446
 C        -2.073315         2.869307        -0.256603
 C        -2.459455         2.743565        -1.544328
 C        -2.153613         1.614722        -2.523395
 O        -2.061550         0.337287        -1.816038
 C        -0.779880         0.071998        -1.203839
 H         0.647927         0.515671         1.634541
 H        -3.154439         0.632235         0.512395
 H        -2.141452         0.096019         1.855642
 H        -0.921616         2.556708         1.394028
 H        -2.098272         3.885747         0.102560
 H        -2.914563         3.684516        -1.968247
 H        -2.761720         1.713566        -3.418279
 H        -1.148967         1.865779        -2.802828
 H        -0.654875        -1.036682        -0.976769
 H         0.096388         0.288402        -1.877659
