19
Iteration:  4422
 O         0.221378         0.128239         0.996115
 C        -0.968502         0.487011         0.319590
 C        -2.325183         0.382452         0.983464
 C        -1.694275         1.803628         0.680689
 C        -1.946731         2.916347        -0.309893
 C        -1.977906         2.841376        -1.668890
 C        -2.251230         1.588482        -2.486490
 O        -2.088950         0.328197        -1.780659
 C        -0.896071         0.175134        -1.125841
 H         1.020532         0.689333         0.603178
 H        -2.933898        -0.120661         0.260569
 H        -2.467966         0.027047         1.978619
 H        -1.318713         2.172561         1.590772
 H        -1.981321         3.924592         0.154765
 H        -1.971723         3.746445        -2.117312
 H        -3.196208         1.445703        -3.014583
 H        -1.535013         1.545618        -3.316288
 H        -0.703938        -0.962100        -1.451438
 H        -0.128104         0.815622        -1.614032
