19
Iteration:  1502charge 0 multiplicity 1
 O         0.130534         0.023753         0.894067
 C        -1.018579         0.550856         0.222702
 C        -2.106397         0.599771         1.178221
 C        -1.382470         1.912843         0.592058
 C        -2.187249         2.864080        -0.272316
 C        -2.436111         2.807113        -1.630498
 C        -1.768380         1.704619        -2.427519
 O        -2.072218         0.359336        -1.914255
 C        -1.084530        -0.128185        -1.099461
 H         0.936343         0.373623         0.529338
 H        -3.150930         0.577338         0.886902
 H        -2.035891         0.323756         2.255330
 H        -0.717935         2.508136         1.200869
 H        -2.758500         3.606894         0.312135
 H        -3.175879         3.477836        -1.949889
 H        -2.098582         1.674415        -3.451796
 H        -0.613353         1.889760        -2.418586
 H        -1.285114        -1.222744        -1.030367
 H        -0.047892        -0.150792        -1.551624
