19
Iteration:  1332
 O         0.217778         0.044805         1.045565
 C        -0.958283         0.524326         0.276973
 C        -2.318155         0.528250         0.869972
 C        -1.627608         1.876275         0.787987
 C        -1.895583         2.983329        -0.262064
 C        -1.954602         2.757986        -1.592410
 C        -2.405956         1.518707        -2.441453
 O        -2.106096         0.214759        -1.911218
 C        -0.825286         0.203946        -1.211393
 H         0.840831         0.773774         1.227381
 H        -3.128250         0.365849         0.128482
 H        -2.448453         0.270316         1.952275
 H        -1.255479         2.008452         1.764083
 H        -1.846741         3.999378         0.049603
 H        -1.892382         3.713661        -2.212988
 H        -3.491026         1.571065        -2.346382
 H        -2.171675         1.327536        -3.542856
 H        -0.345951        -0.769828        -1.332974
 H        -0.034744         0.784940        -1.741782
