19
Iteration:  4083charge 0 multiplicity 1
 O         0.082500        -0.068898         1.108454
 C        -0.853022         0.560326         0.340806
 C        -2.231585         0.568474         0.835556
 C        -1.504312         1.876966         0.771337
 C        -1.962846         2.911196        -0.327487
 C        -2.251402         2.770649        -1.623981
 C        -2.341220         1.580134        -2.448950
 O        -2.017020         0.263881        -1.924173
 C        -0.803787         0.184359        -1.151973
 H         0.908296         0.546649         1.228269
 H        -2.940523         0.459592        -0.010431
 H        -2.498433         0.043385         1.779525
 H        -1.090847         2.243881         1.742302
 H        -1.863839         3.938658         0.007556
 H        -2.306017         3.803920        -2.223340
 H        -3.440621         1.662970        -2.646905
 H        -1.822033         1.705348        -3.565085
 H        -0.498693        -0.839288        -1.202890
 H         0.067759         0.798717        -1.571816
