19
Iteration:  3044charge 0 multiplicity 1
 O         0.204121         0.140746         0.934261
 C        -0.988285         0.413878         0.270336
 C        -2.166013         0.640565         1.174636
 C        -1.479061         1.896649         0.588407
 C        -2.265890         2.865743        -0.212567
 C        -2.286677         2.819299        -1.560826
 C        -1.855644         1.747897        -2.519311
 O        -2.076350         0.337379        -1.957691
 C        -1.035130        -0.207477        -1.147555
 H         1.048368         0.288607         0.411018
 H        -3.224881         0.426952         0.858243
 H        -1.946513         0.343969         2.257205
 H        -0.765262         2.296150         1.288118
 H        -2.575564         3.835357         0.283940
 H        -2.706563         3.747529        -2.007366
 H        -2.484851         1.846644        -3.296688
 H        -0.781435         1.816219        -2.791393
 H        -1.457481        -1.206935        -0.890228
 H        -0.048018        -0.241592        -1.635741
