19
Iteration:  4725charge 0 multiplicity 1
 O         0.084009        -0.161992         1.069780
 C        -0.897635         0.518645         0.268500
 C        -2.166301         0.672000         1.028751
 C        -1.353673         2.018400         0.593689
 C        -2.155341         2.910136        -0.275533
 C        -2.501181         2.782344        -1.552641
 C        -2.031930         1.703983        -2.435949
 O        -2.011555         0.316646        -1.936528
 C        -0.865705        -0.065571        -1.194007
 H         1.063840         0.219606         0.964642
 H        -3.099543         0.713635         0.334370
 H        -2.396569         0.287427         2.095345
 H        -0.736586         2.429800         1.465774
 H        -2.757611         3.634593         0.253596
 H        -3.156911         3.556351        -2.005978
 H        -2.642187         1.726115        -3.396006
 H        -0.997179         1.888119        -2.869960
 H        -0.659331        -1.093425        -1.204765
 H         0.067541         0.595124        -1.736712
