19
Iteration:  3283charge 0 multiplicity 1
 O         0.007073        -0.075433         1.038507
 C        -0.970555         0.552371         0.194484
 C        -2.283216         0.600588         0.856523
 C        -1.508311         1.858966         0.661424
 C        -1.935177         2.963225        -0.200221
 C        -2.109590         2.793338        -1.557358
 C        -2.369309         1.470431        -2.307487
 O        -1.929457         0.196647        -1.931307
 C        -0.740081         0.314127        -1.219969
 H         0.778149         0.452435         1.030489
 H        -3.225552         0.609434         0.412504
 H        -2.431645         0.356277         1.925685
 H        -1.009478         2.389184         1.485663
 H        -1.896285         3.862832         0.383703
 H        -2.295905         3.466532        -2.279905
 H        -3.586524         1.370191        -2.263445
 H        -1.913465         1.573359        -3.308190
 H        -0.406987        -0.785508        -1.148938
 H        -0.070456         1.037214        -1.859210
