19
Iteration:   796charge 0 multiplicity 1
 O         0.174349         0.123921         0.925342
 C        -0.933934         0.453357         0.312081
 C        -2.133894         0.429049         1.095387
 C        -1.606232         1.866044         0.709353
 C        -1.993687         2.882113        -0.381476
 C        -2.277622         2.815712        -1.685212
 C        -1.983455         1.588636        -2.523849
 O        -2.163847         0.434709        -1.778277
 C        -0.978456         0.052967        -1.064707
 H         0.928054         0.297991         0.248228
 H        -3.092545         0.293825         0.552090
 H        -2.113407         0.129716         2.136418
 H        -1.111133         2.361942         1.530546
 H        -2.298229         3.797582         0.048682
 H        -2.578587         3.682071        -2.285110
 H        -2.726238         1.495055        -3.408503
 H        -0.997910         1.812554        -2.870027
 H        -1.116234        -1.093969        -1.065303
 H         0.006671         0.154903        -1.548778
