19
Iteration:  3554
 O         0.246966        -0.015188         1.009339
 C        -0.921873         0.498637         0.262683
 C        -2.260824         0.612479         1.172250
 C        -1.458616         1.904464         0.683530
 C        -2.103401         2.851946        -0.272556
 C        -2.438609         2.692067        -1.605937
 C        -1.847163         1.753863        -2.551736
 O        -2.087937         0.437119        -1.965962
 C        -1.029026        -0.084535        -1.167923
 H         1.037596         0.328243         0.395923
 H        -3.233075         0.561616         0.736327
 H        -2.118859         0.509638         2.261458
 H        -0.969555         2.383891         1.556437
 H        -2.736116         3.641308         0.314667
 H        -3.027972         3.440310        -2.087887
 H        -2.379616         1.701479        -3.419666
 H        -0.765169         1.906256        -2.749868
 H        -1.424458        -1.097638        -1.089626
 H        -0.025977         0.045764        -1.633523
