19
Iteration:   522
 O         0.302901         0.060849         1.011183
 C        -0.913542         0.490412         0.286621
 C        -2.302656         0.579001         0.844828
 C        -1.570291         1.831559         0.700534
 C        -2.013242         2.828162        -0.266062
 C        -2.082906         2.764757        -1.622060
 C        -2.337264         1.512948        -2.401156
 O        -2.093946         0.321132        -1.818125
 C        -0.830060         0.187085        -1.212026
 H         0.081356         0.145097         2.008538
 H        -3.093984         0.510289         0.118678
 H        -2.703953         0.425148         1.843600
 H        -1.228840         2.359250         1.623769
 H        -1.973167         3.810954         0.155529
 H        -2.293517         3.727878        -2.167154
 H        -3.293990         1.607676        -3.008463
 H        -1.550096         1.731079        -3.264024
 H        -0.339244        -0.809013        -1.400943
 H        -0.154044         0.963666        -1.741569
