19
Iteration:  1830charge 0 multiplicity 1
 O         0.136450         0.029357         0.977354
 C        -0.975698         0.536371         0.286145
 C        -2.203510         0.545446         1.048814
 C        -1.434319         1.922635         0.643223
 C        -2.116697         2.939896        -0.215317
 C        -2.221838         2.797048        -1.551029
 C        -2.030295         1.629072        -2.451551
 O        -2.100504         0.248596        -1.963050
 C        -0.956291        -0.019039        -1.171970
 H         0.942409         0.583088         0.950960
 H        -3.150671         0.599179         0.543231
 H        -2.088855         0.314367         2.073613
 H        -0.879255         2.418113         1.474406
 H        -2.491483         3.905037         0.147783
 H        -2.741711         3.631520        -2.176164
 H        -2.921391         1.739853        -3.197706
 H        -1.158488         1.821550        -3.061815
 H        -0.682267        -1.057388        -1.180726
 H         0.042063         0.291138        -1.638197
