19
Iteration:  1125charge 0 multiplicity 1
 O         0.215255         0.260333         0.790278
 C        -1.001381         0.455993         0.300443
 C        -2.165820         0.638374         1.205990
 C        -1.545436         1.829546         0.606909
 C        -2.155397         2.868091        -0.260564
 C        -2.319824         2.760270        -1.557212
 C        -1.708698         1.641601        -2.457742
 O        -2.091871         0.430821        -1.940134
 C        -1.168687        -0.195600        -1.039628
 H         0.906621        -0.020795         0.074595
 H        -3.081501         0.397229         0.737207
 H        -2.058591         0.003194         2.113257
 H        -0.916497         2.413245         1.267275
 H        -2.474683         3.678458         0.379522
 H        -2.979372         3.510775        -2.011993
 H        -2.110402         1.756775        -3.427398
 H        -0.564542         1.652507        -2.496468
 H        -1.428771        -1.316842        -0.928051
 H        -0.301345        -0.178765        -1.667720
