19
Iteration:  3015charge 0 multiplicity 1
 O         0.207267         0.172081         0.942162
 C        -0.994137         0.515413         0.245630
 C        -2.199883         0.504453         1.083969
 C        -1.530703         1.907090         0.681870
 C        -2.057670         2.948158        -0.207837
 C        -2.211250         2.770837        -1.527807
 C        -1.904037         1.621560        -2.481025
 O        -2.178451         0.254315        -1.987565
 C        -1.064184        -0.036417        -1.157212
 H         0.899187         0.781971         0.750024
 H        -3.195221         0.254764         0.758674
 H        -1.868426         0.220928         2.032952
 H        -0.998773         2.242564         1.635798
 H        -2.404119         3.822796         0.214392
 H        -2.529498         3.596611        -2.090473
 H        -2.625812         1.744916        -3.476597
 H        -0.873117         1.658141        -2.879137
 H        -1.120337        -1.095535        -0.989419
 H        -0.023733         0.096966        -1.660208
