19
Iteration:  2106charge 0 multiplicity 1
 O         0.119452        -0.025591         0.953307
 C        -1.000983         0.608543         0.351926
 C        -2.402368         0.609023         0.914748
 C        -1.505111         1.918587         0.720631
 C        -1.716223         2.900085        -0.278251
 C        -2.233597         2.759710        -1.503363
 C        -2.350773         1.486225        -2.464383
 O        -1.960262         0.144768        -1.985071
 C        -0.803303         0.237051        -1.123876
 H         0.772874         0.644117         1.137398
 H        -3.047578         0.383703         0.036511
 H        -2.665354         0.382517         2.001411
 H        -1.101516         2.419867         1.591668
 H        -1.617343         3.921356         0.085064
 H        -2.765040         3.557899        -1.892089
 H        -3.554752         1.382538        -2.605846
 H        -1.902127         1.759680        -3.440447
 H        -0.271425        -0.675917        -1.129692
 H        -0.055369         0.991551        -1.464296
