19
Iteration:  3477charge 0 multiplicity 1
 O         0.253836         0.020146         0.855083
 C        -0.965030         0.596821         0.333586
 C        -2.200102         0.612351         1.209378
 C        -1.446501         1.909353         0.573350
 C        -2.235236         2.762033        -0.286648
 C        -2.402734         2.720190        -1.567587
 C        -1.692533         1.762570        -2.398995
 O        -2.089077         0.428149        -2.078881
 C        -1.158068        -0.098861        -1.036005
 H         0.912401         0.189217         0.208861
 H        -3.169383         0.232452         0.836806
 H        -1.957223         0.425067         2.232579
 H        -0.891201         2.513833         1.295679
 H        -2.690152         3.549916         0.361604
 H        -3.158962         3.245505        -2.040642
 H        -1.813175         1.900700        -3.394853
 H        -0.610406         1.902549        -2.273052
 H        -1.664039        -1.038602        -0.824542
 H        -0.207105        -0.341693        -1.532699
