19
Iteration:  4802
 O         0.151412        -0.011444         0.967953
 C        -0.942637         0.555585         0.332344
 C        -2.302646         0.547622         0.998899
 C        -1.599462         1.864497         0.740431
 C        -1.984856         2.854331        -0.291530
 C        -2.156014         2.799601        -1.600937
 C        -2.185035         1.597290        -2.454324
 O        -2.080151         0.287301        -1.889479
 C        -0.776549         0.148130        -1.228164
 H         0.827641         0.614991         1.020405
 H        -3.241519         0.272986         0.379708
 H        -2.341928         0.146680         2.088630
 H        -1.064474         2.321445         1.644139
 H        -2.241452         3.777558         0.158094
 H        -2.135541         3.718019        -2.272584
 H        -3.217935         1.643773        -2.883561
 H        -1.487090         1.703455        -3.273717
 H        -0.560787        -0.871543        -1.136091
 H        -0.125257         0.766160        -1.716747
