19
Iteration:  3155charge 0 multiplicity 1
 O         0.236400         0.075836         0.987117
 C        -0.954930         0.514632         0.292069
 C        -2.243779         0.526419         1.120055
 C        -1.509910         1.907324         0.673963
 C        -1.995057         2.945596        -0.244819
 C        -2.384582         2.778857        -1.500585
 C        -1.950031         1.718751        -2.594061
 O        -2.093231         0.311570        -2.047215
 C        -1.008119        -0.101919        -1.083917
 H         0.993132         0.405424         0.443362
 H        -3.163325         0.236819         0.651359
 H        -2.197269         0.484453         2.189356
 H        -1.153031         2.362549         1.665636
 H        -2.354301         3.853912         0.185562
 H        -2.978559         3.568742        -1.867753
 H        -2.606068         1.767383        -3.380761
 H        -0.912312         1.764964        -3.070771
 H        -1.158343        -1.189490        -0.997301
 H        -0.017509        -0.009635        -1.588719
