19
Iteration:  3864
 O         0.257879         0.147408         0.905528
 C        -1.026022         0.536419         0.255993
 C        -2.193333         0.580786         1.260507
 C        -1.474741         1.901143         0.695098
 C        -2.267543         2.785936        -0.282236
 C        -2.331664         2.758539        -1.585834
 C        -1.671761         1.745217        -2.515733
 O        -2.124032         0.349379        -1.999717
 C        -1.139277        -0.134359        -1.139664
 H         0.861247         0.589598         0.316892
 H        -3.211651         0.368867         0.929831
 H        -1.842675         0.153051         2.207387
 H        -0.911679         2.444383         1.421873
 H        -2.592147         3.634283         0.159397
 H        -2.807846         3.550783        -2.092295
 H        -1.929103         1.982833        -3.529253
 H        -0.545967         1.705577        -2.359211
 H        -1.515290        -1.210088        -0.933161
 H        -0.214170        -0.328392        -1.653330
