19
Iteration:  2362charge 0 multiplicity 1
 O         0.227815         0.096585         0.933537
 C        -0.989207         0.509908         0.275900
 C        -2.246311         0.668194         1.294185
 C        -1.490999         1.839534         0.586450
 C        -2.164146         2.870910        -0.213199
 C        -2.267429         2.783598        -1.561648
 C        -1.900251         1.704860        -2.543554
 O        -2.046393         0.304386        -2.019315
 C        -1.056104        -0.108443        -1.151540
 H         0.891422         0.823731         0.709602
 H        -3.110554         0.386156         0.810522
 H        -2.205970         0.490573         2.336180
 H        -0.741109         2.202783         1.251193
 H        -2.800554         3.544807         0.238999
 H        -2.834969         3.610684        -1.941051
 H        -2.609045         1.643422        -3.384189
 H        -0.929001         1.762745        -2.984678
 H        -1.020850        -1.213061        -1.119963
 H         0.016579         0.029363        -1.563678
