19
Iteration:  2771
 O         0.211554         0.076662         1.056196
 C        -0.981884         0.538794         0.280959
 C        -2.207812         0.568059         1.198719
 C        -1.519963         1.858752         0.643358
 C        -2.110582         2.840842        -0.255185
 C        -2.193865         2.852401        -1.595502
 C        -2.041320         1.641182        -2.616603
 O        -2.085270         0.303540        -1.943968
 C        -0.985048        -0.035989        -1.172885
 H         1.023791         0.384519         0.541312
 H        -3.093752         0.305670         0.690161
 H        -2.124507         0.245723         2.232400
 H        -1.044040         2.343444         1.414348
 H        -2.640158         3.705201         0.151612
 H        -2.505054         3.831616        -2.055849
 H        -2.949215         1.610008        -3.294769
 H        -1.028778         1.936946        -3.225420
 H        -0.970875        -1.120009        -1.123855
 H        -0.017681         0.421660        -1.692335
