19
Iteration:  3661charge 0 multiplicity 1
 O         0.097678        -0.024844         1.023501
 C        -0.924612         0.539521         0.289015
 C        -2.364068         0.526955         0.910967
 C        -1.602434         1.852258         0.676471
 C        -1.850814         2.833095        -0.396559
 C        -2.142263         2.748774        -1.595878
 C        -2.377890         1.533948        -2.336243
 O        -1.986768         0.304480        -1.860130
 C        -0.721032         0.291607        -1.173316
 H         0.846479         0.693323         1.157917
 H        -3.213165         0.139839         0.357117
 H        -2.487263         0.275771         1.993868
 H        -1.378053         2.251233         1.596597
 H        -1.696989         3.863972         0.063675
 H        -1.957580         3.664738        -2.153124
 H        -3.525243         1.444344        -2.502213
 H        -2.102640         1.773971        -3.348283
 H        -0.296562        -0.636067        -1.473347
 H         0.021266         1.049761        -1.574646
