19
Iteration:  2339
 O         0.224289         0.173617         0.969612
 C        -1.001424         0.380859         0.260728
 C        -2.198009         0.669073         1.111814
 C        -1.392141         1.875896         0.613598
 C        -2.149149         2.804797        -0.268997
 C        -2.442067         2.758292        -1.584711
 C        -1.818755         1.754774        -2.433531
 O        -2.093325         0.334413        -1.958836
 C        -1.107880        -0.132032        -1.139353
 H         0.695697         0.866145         0.563572
 H        -3.090016         0.462723         0.723596
 H        -2.002748         0.370632         2.100422
 H        -0.786626         2.260491         1.387121
 H        -2.453573         3.739964         0.063109
 H        -2.901671         3.673100        -1.924240
 H        -2.030108         1.699003        -3.522461
 H        -0.745196         1.852828        -2.377635
 H        -1.229883        -1.230958        -1.065583
 H        -0.058798        -0.242451        -1.613703
