19
Iteration:  3962charge 0 multiplicity 1
 O         0.107661         0.001343         1.019927
 C        -0.983530         0.424661         0.249816
 C        -2.232963         0.683036         1.050492
 C        -1.401244         1.889717         0.675704
 C        -2.060561         2.878764        -0.284337
 C        -2.453059         2.824212        -1.567049
 C        -1.967606         1.669015        -2.469882
 O        -2.033530         0.310891        -1.911489
 C        -0.889208        -0.008832        -1.185025
 H         0.820950         0.487520         0.715869
 H        -3.089309         0.390297         0.423427
 H        -2.304291         0.252721         2.065989
 H        -0.784329         2.430932         1.340472
 H        -2.368816         3.673043         0.190429
 H        -3.164169         3.555725        -1.940284
 H        -2.499578         1.641744        -3.394024
 H        -1.007891         2.035121        -2.637805
 H        -0.762619        -1.094173        -1.116645
 H         0.014392         0.220425        -1.793038
