19
Iteration:   913charge 0 multiplicity 1
 O         0.137765        -0.103096         0.965160
 C        -0.927436         0.562778         0.325779
 C        -2.309367         0.552045         0.903824
 C        -1.530510         1.939227         0.688202
 C        -1.967595         2.902224        -0.325137
 C        -2.150063         2.808337        -1.659727
 C        -2.349821         1.527244        -2.327052
 O        -2.007553         0.289884        -1.817706
 C        -0.750420         0.201814        -1.248705
 H         0.547550         0.431708         1.710273
 H        -3.139766         0.283586         0.213093
 H        -2.381893         0.328199         1.981026
 H        -1.210928         2.302736         1.636453
 H        -1.917335         3.887783        -0.026836
 H        -2.471474         3.701017        -2.211480
 H        -3.383159         1.433317        -2.394700
 H        -1.836286         1.495122        -3.298107
 H        -0.273042        -0.752852        -1.328736
 H        -0.004797         0.888009        -1.704955
