19
Iteration:  2396
 O         0.161234        -0.012767         0.958910
 C        -0.934355         0.619252         0.306545
 C        -2.147278         0.513263         1.183663
 C        -1.582126         1.908776         0.731225
 C        -2.142082         2.914602        -0.292352
 C        -2.286765         2.719953        -1.600551
 C        -2.031895         1.605087        -2.598062
 O        -2.049441         0.321957        -1.920930
 C        -0.966672         0.083375        -1.122527
 H         1.095859         0.058585         0.568715
 H        -2.894296         0.174269         0.456884
 H        -2.278163         0.202545         2.197968
 H        -0.963968         2.481971         1.449310
 H        -2.197134         3.940721        -0.043589
 H        -2.320699         3.662422        -2.148538
 H        -2.788779         1.668016        -3.404040
 H        -1.084587         1.853221        -3.046455
 H        -0.969857        -1.027430        -0.998154
 H        -0.114488         0.582836        -1.706383
