19
Iteration:  4825charge 0 multiplicity 1
 O         0.220538         0.044850         0.997967
 C        -0.922498         0.518704         0.383687
 C        -2.301440         0.344025         0.871355
 C        -1.626357         1.826868         0.651712
 C        -1.905717         2.907169        -0.291204
 C        -2.096440         2.794975        -1.625433
 C        -2.207494         1.562510        -2.584768
 O        -2.159192         0.409248        -1.707129
 C        -0.854351         0.185796        -1.163552
 H         0.759678         0.898655         1.123254
 H        -3.204128         0.050547         0.266314
 H        -2.434987         0.122049         1.989885
 H        -1.241618         2.166234         1.645883
 H        -1.794389         3.864636         0.163264
 H        -2.377041         3.735426        -2.265116
 H        -3.226741         1.505466        -3.097644
 H        -1.414893         1.587173        -3.342556
 H        -0.618849        -0.875250        -1.224264
 H        -0.270038         0.914378        -1.584016
