19
Iteration:  4646
 O         0.215648         0.279405         0.854762
 C        -1.005421         0.509527         0.261240
 C        -2.209550         0.391650         1.236073
 C        -1.659212         1.828724         0.709363
 C        -2.175390         2.872000        -0.243306
 C        -2.066081         2.819141        -1.559144
 C        -1.880557         1.647901        -2.503370
 O        -2.111624         0.383818        -1.976517
 C        -1.055217        -0.119504        -1.134257
 H         0.935269         0.897809         0.440099
 H        -3.024718        -0.051565         0.749011
 H        -2.180403         0.219983         2.267234
 H        -1.034920         2.126583         1.506097
 H        -2.317671         3.953899         0.193384
 H        -2.282684         3.723972        -2.043784
 H        -2.643025         1.830063        -3.268908
 H        -0.855507         1.609336        -3.114460
 H        -1.322085        -1.136032        -1.046047
 H        -0.140654        -0.252969        -1.711942
