19
Iteration:  3420
 O         0.226713         0.163991         0.894249
 C        -0.970370         0.426514         0.312595
 C        -2.225858         0.509956         1.134542
 C        -1.589475         1.822152         0.650725
 C        -2.049355         2.816745        -0.274596
 C        -2.270298         2.887532        -1.565973
 C        -1.907319         1.731895        -2.508516
 O        -2.129982         0.345199        -1.928389
 C        -1.037699        -0.138476        -1.123661
 H         0.834342         0.918623         0.524860
 H        -3.204129         0.262847         0.704361
 H        -2.065305         0.527797         2.241929
 H        -1.010402         2.340501         1.352647
 H        -2.401235         3.746303         0.275352
 H        -2.554787         3.808911        -2.170075
 H        -2.399837         1.704077        -3.450490
 H        -0.814062         1.820954        -2.576143
 H        -1.085033        -1.229424        -1.079281
 H        -0.062736         0.191938        -1.557314
