19
Iteration:   117charge 0 multiplicity 1
 O         0.224593         0.046710         0.867773
 C        -0.943837         0.599086         0.365181
 C        -2.248434         0.351522         1.005695
 C        -1.720235         1.808811         0.729801
 C        -1.816707         2.909862        -0.254786
 C        -2.202891         2.883409        -1.616785
 C        -2.351102         1.656813        -2.494947
 O        -1.973139         0.328493        -1.947042
 C        -0.800926         0.186878        -1.099588
 H        -0.049002        -0.395432         1.642968
 H        -3.073930        -0.178780         0.543421
 H        -2.146696        -0.022515         2.043808
 H        -1.531929         2.232603         1.683190
 H        -1.978334         3.846020         0.208614
 H        -2.475099         3.782781        -2.152171
 H        -3.352210         1.431117        -2.897523
 H        -1.697513         1.821837        -3.424864
 H        -0.663545        -0.941883        -1.178652
 H         0.151353         0.591397        -1.599266
