19
Iteration:  4428charge 0 multiplicity 1
 O         0.217388         0.157484         0.999351
 C        -0.936433         0.481162         0.343704
 C        -2.334197         0.385523         0.931102
 C        -1.724959         1.790934         0.645702
 C        -1.931111         2.895422        -0.317822
 C        -1.989084         2.801250        -1.627388
 C        -2.214475         1.580104        -2.439074
 O        -2.138643         0.361279        -1.773986
 C        -0.866487         0.139445        -1.189590
 H         0.902334         0.655859         0.535280
 H        -3.086826        -0.109598         0.288654
 H        -2.461723         0.179593         2.016802
 H        -1.334356         2.177377         1.643546
 H        -1.760797         3.932380         0.073461
 H        -2.060084         3.801093        -2.242464
 H        -3.273444         1.483242        -2.785851
 H        -1.407871         1.523747        -3.223955
 H        -0.503017        -0.839746        -1.349107
 H        -0.130930         0.927831        -1.491333
