19
Iteration:   472
 O         0.146285        -0.058367         0.943098
 C        -1.054736         0.498873         0.297252
 C        -2.341210         0.762481         1.114539
 C        -1.404604         1.839811         0.692482
 C        -1.946358         2.859535        -0.302283
 C        -2.457563         2.731025        -1.505559
 C        -2.297309         1.599897        -2.478694
 O        -1.845794         0.275475        -2.063974
 C        -0.721717         0.133848        -1.159161
 H         0.228202         0.220043         1.859041
 H        -3.341548         0.596390         0.683987
 H        -2.292076         0.443649         2.175210
 H        -0.846401         2.333060         1.432508
 H        -1.862804         3.826625         0.185845
 H        -2.587482         3.557902        -2.135640
 H        -3.278684         1.477835        -2.885028
 H        -1.727237         1.982618        -3.289312
 H        -0.274195        -0.871499        -1.210714
 H         0.047621         0.763381        -1.571979
