19
Iteration:  1817charge 0 multiplicity 1
 O         0.150959        -0.036280         1.008555
 C        -0.920994         0.573081         0.185669
 C        -2.233280         0.653458         1.001501
 C        -1.543629         1.921648         0.664238
 C        -2.165950         2.844970        -0.258448
 C        -2.156884         2.785956        -1.561440
 C        -2.090683         1.571862        -2.414072
 O        -2.069823         0.336390        -1.875632
 C        -0.867172         0.033991        -1.182251
 H         0.907449         0.508681         0.679761
 H        -3.168633         0.237268         0.574000
 H        -2.126769         0.187906         2.022446
 H        -0.928830         2.371995         1.431966
 H        -2.202857         3.805395         0.257928
 H        -2.322164         3.744092        -2.133964
 H        -3.124530         1.554909        -2.919941
 H        -1.352122         1.589189        -3.195381
 H        -1.023924        -0.970670        -1.006208
 H        -0.028636         0.466389        -1.833542
