19
Iteration:  4119charge 0 multiplicity 1
 O        -0.047219        -0.065121         1.095383
 C        -0.962356         0.486358         0.239144
 C        -2.280148         0.729476         0.990114
 C        -1.338270         1.893694         0.607465
 C        -1.933976         2.907081        -0.262307
 C        -2.469002         2.696933        -1.494522
 C        -2.204710         1.581410        -2.413583
 O        -1.927043         0.233430        -1.989283
 C        -0.728672         0.199672        -1.159413
 H         0.901414         0.054243         0.757541
 H        -3.167396         0.556679         0.406622
 H        -2.310140         0.408512         2.014439
 H        -0.735607         2.283550         1.440817
 H        -2.065774         3.987721         0.133623
 H        -2.926015         3.569399        -2.145946
 H        -3.220888         1.452630        -2.909732
 H        -1.409509         1.927292        -3.272373
 H        -0.323150        -0.909295        -1.333339
 H         0.033084         0.949828        -1.643204
