19
Iteration:   266
 O         0.248918        -0.079251         1.087824
 C        -0.897804         0.428432         0.195658
 C        -2.133333         0.711964         1.061423
 C        -1.416374         1.881450         0.565393
 C        -2.230989         2.916346        -0.231902
 C        -2.628485         2.751312        -1.508802
 C        -1.871350         1.758199        -2.381018
 O        -2.070139         0.386600        -2.017133
 C        -0.975918        -0.108333        -1.265203
 H         0.665910         0.645853         1.669080
 H        -3.131537         0.623127         0.544651
 H        -2.160343         0.399925         2.102310
 H        -0.802907         2.266754         1.306657
 H        -2.606837         3.753211         0.379612
 H        -3.018363         3.579452        -2.017765
 H        -2.122846         1.874930        -3.435678
 H        -0.785036         1.797328        -2.514885
 H        -0.856193        -1.183814        -1.298768
 H        -0.009577         0.166803        -1.874493
