19
Iteration:  1784charge 0 multiplicity 1
 O         0.234795         0.004188         1.153060
 C        -0.966222         0.475103         0.349345
 C        -2.272051         0.390056         0.939360
 C        -1.517684         1.842261         0.625245
 C        -1.839932         2.902991        -0.368783
 C        -2.238288         2.837534        -1.683717
 C        -2.233535         1.587680        -2.483933
 O        -2.135963         0.380272        -1.830294
 C        -0.950767         0.238177        -1.115048
 H         0.974619         0.413685         0.563341
 H        -2.947716        -0.038038         0.172965
 H        -2.222671         0.083909         2.037209
 H        -1.198064         2.239611         1.557140
 H        -1.815861         3.912119         0.024452
 H        -2.642344         3.645631        -2.313379
 H        -3.256420         1.564382        -3.030837
 H        -1.479089         1.599207        -3.244772
 H        -0.514056        -0.705563        -1.200091
 H        -0.074994         0.765906        -1.644144
