19
Iteration:  3140
 O         0.198245         0.143314         0.960892
 C        -0.995631         0.473815         0.338996
 C        -2.204910         0.635546         1.162630
 C        -1.448529         1.848189         0.654682
 C        -2.034413         2.882305        -0.258745
 C        -2.431318         2.707100        -1.537124
 C        -1.942720         1.696637        -2.419104
 O        -1.987400         0.361761        -2.102316
 C        -1.090819        -0.124315        -1.167299
 H         0.869619         0.403411         0.378786
 H        -3.106304         0.455644         0.484493
 H        -2.277267         0.285127         2.225555
 H        -0.746484         2.260712         1.302215
 H        -2.157912         3.887606         0.271445
 H        -2.944259         3.546478        -2.053120
 H        -2.577887         1.690084        -3.370303
 H        -0.913300         2.044382        -2.520630
 H        -1.457999        -1.156313        -0.994132
 H        -0.095401        -0.009510        -1.530054
