19
Iteration:  1965charge 0 multiplicity 1
 O         0.290042         0.138584         0.962068
 C        -1.004601         0.513126         0.188632
 C        -2.164065         0.576066         1.130334
 C        -1.520574         1.882858         0.644486
 C        -2.214050         2.853850        -0.223955
 C        -2.221034         2.813056        -1.558918
 C        -1.935930         1.715056        -2.481921
 O        -2.069171         0.331979        -2.016137
 C        -1.141435        -0.188752        -1.073742
 H         0.795496         0.911933         1.062921
 H        -3.198491         0.627054         0.728436
 H        -2.084925         0.153918         2.142255
 H        -0.860319         2.324128         1.359507
 H        -2.202729         3.801845         0.226078
 H        -2.561747         3.636328        -2.084373
 H        -2.520404         1.645758        -3.383345
 H        -0.916908         1.779116        -2.963192
 H        -1.262964        -1.338029        -0.879671
 H        -0.117632        -0.134543        -1.624065
