19
Iteration:  3759charge 0 multiplicity 1
 O         0.108482        -0.075023         1.100051
 C        -0.843506         0.553850         0.316697
 C        -2.206687         0.673667         0.984281
 C        -1.464846         1.920955         0.658965
 C        -2.167883         2.899603        -0.219466
 C        -2.295576         2.739972        -1.563449
 C        -2.170536         1.608115        -2.504327
 O        -2.031249         0.294648        -2.032168
 C        -0.833623         0.051677        -1.152944
 H         0.988465         0.486313         0.984284
 H        -3.138460         0.332073         0.503011
 H        -2.237522         0.402488         2.035830
 H        -1.063182         2.367123         1.535543
 H        -2.161919         3.940906         0.287931
 H        -2.421188         3.620274        -2.181223
 H        -3.144880         1.673595        -3.120512
 H        -1.432480         1.763426        -3.409983
 H        -0.709229        -1.029591        -1.103616
 H         0.059797         0.466894        -1.629424
