19
Iteration:  4985charge 0 multiplicity 1
 O         0.146474         0.022411         1.072745
 C        -0.949358         0.529936         0.304160
 C        -2.146374         0.506520         0.998178
 C        -1.469826         1.869224         0.602414
 C        -2.149922         2.896442        -0.224688
 C        -2.355348         2.812527        -1.567921
 C        -2.056594         1.680358        -2.548848
 O        -2.044587         0.413003        -1.926572
 C        -0.923589        -0.049259        -1.135871
 H         1.066932         0.175027         0.613933
 H        -3.042250         0.217434         0.360782
 H        -2.203798         0.381170         2.162170
 H        -0.860924         2.217002         1.539289
 H        -2.592839         3.671341         0.353622
 H        -2.643135         3.694204        -2.091656
 H        -2.628195         1.684696        -3.503285
 H        -0.940071         1.859348        -3.005967
 H        -1.106597        -1.143085        -1.097623
 H         0.113431         0.249210        -1.571884
