19
Iteration:    28charge 0 multiplicity 1
 O         0.240357        -0.095266         1.093655
 C        -0.857830         0.453406         0.323987
 C        -2.278907         0.553173         0.762359
 C        -1.413105         1.854148         0.554377
 C        -2.089204         2.965839        -0.282283
 C        -2.530127         2.918200        -1.518790
 C        -2.201954         1.686463        -2.412746
 O        -1.926595         0.384070        -1.827691
 C        -0.768326         0.032415        -1.151059
 H         0.397614        -0.965027         0.741217
 H        -3.157195         0.610824         0.096701
 H        -2.611236         0.417696         1.803572
 H        -1.242529         2.365159         1.523929
 H        -2.328383         3.791640         0.430453
 H        -3.213263         3.752715        -1.895390
 H        -3.166878         1.446241        -2.932545
 H        -1.474520         1.920666        -3.278481
 H        -0.531224        -1.072072        -1.224086
 H         0.180889         0.469226        -1.601242
