19
Iteration:   521charge 0 multiplicity 1
 O         0.300042         0.054373         1.010674
 C        -0.914267         0.498391         0.289794
 C        -2.299807         0.585361         0.849626
 C        -1.565827         1.833106         0.706590
 C        -2.016236         2.829248        -0.268875
 C        -2.083249         2.769369        -1.615257
 C        -2.333107         1.507652        -2.402772
 O        -2.092278         0.309476        -1.830871
 C        -0.831926         0.195182        -1.211036
 H         0.089687         0.138204         1.999674
 H        -3.086311         0.508483         0.122439
 H        -2.694802         0.404942         1.845330
 H        -1.245255         2.386326         1.642763
 H        -1.995821         3.828671         0.164130
 H        -2.272488         3.752924        -2.161679
 H        -3.312281         1.594392        -3.003922
 H        -1.568943         1.722544        -3.260780
 H        -0.352421        -0.793962        -1.418344
 H        -0.157984         0.926734        -1.758466
