19
Iteration:   301charge 0 multiplicity 1
 O         0.293633         0.051526         0.737984
 C        -0.928356         0.574392         0.252333
 C        -2.255889         0.542498         1.022009
 C        -1.505327         1.833823         0.608977
 C        -2.207404         2.831031        -0.212962
 C        -2.419248         2.824619        -1.583824
 C        -1.774519         1.705045        -2.467634
 O        -2.033749         0.461188        -1.793784
 C        -1.022572        -0.143805        -1.073533
 H         0.417262         0.371334         1.698676
 H        -3.067370         0.306082         0.345660
 H        -2.304217         0.262349         2.081593
 H        -1.173069         2.299597         1.515244
 H        -2.841976         3.477476         0.392827
 H        -3.019798         3.596230        -2.036475
 H        -2.519979         1.657414        -3.286502
 H        -0.708046         1.938934        -2.697843
 H        -1.347284        -1.178475        -0.846733
 H        -0.038495        -0.020436        -1.606493
