19
Iteration:  4609
 O         0.281458         0.131791         0.922889
 C        -0.940036         0.521328         0.354795
 C        -2.240793         0.474966         1.106830
 C        -1.583021         1.781227         0.672895
 C        -2.170928         2.844066        -0.261466
 C        -2.193558         2.802509        -1.597755
 C        -1.849804         1.626638        -2.484244
 O        -2.193938         0.384579        -1.913217
 C        -1.041809         0.020765        -1.206795
 H         0.976869         0.893621         0.749526
 H        -3.010270         0.034139         0.414931
 H        -2.387661         0.461027         2.223849
 H        -1.053958         2.354678         1.486822
 H        -2.362723         3.822975         0.192036
 H        -2.616799         3.674602        -2.239466
 H        -2.482214         1.732777        -3.390574
 H        -0.784346         1.679019        -2.875642
 H        -1.285971        -1.125006        -0.900567
 H         0.027551         0.269812        -1.603687
