19
Iteration:  4163charge 0 multiplicity 1
 O         0.080309        -0.110542         1.070398
 C        -0.898933         0.597564         0.316180
 C        -2.129151         0.649648         1.064759
 C        -1.459860         1.973293         0.658736
 C        -2.058396         2.860976        -0.318509
 C        -2.408313         2.714740        -1.569384
 C        -2.051757         1.615510        -2.532408
 O        -1.991412         0.340100        -1.986446
 C        -0.956701         0.032048        -1.153800
 H         0.951632         0.423440         0.879323
 H        -3.024087         0.331106         0.554169
 H        -2.107631         0.391378         2.094668
 H        -1.044860         2.501393         1.483198
 H        -2.530770         3.696955         0.261383
 H        -2.908916         3.649250        -1.923603
 H        -2.904630         1.716511        -3.211850
 H        -1.090798         1.906823        -3.123142
 H        -0.992020        -1.114352        -1.103127
 H        -0.026594         0.411723        -1.618587
