19
Iteration:    52
 O         0.039327        -0.022922         1.128670
 C        -0.875094         0.556918         0.223118
 C        -2.190503         0.558391         0.908155
 C        -1.427498         1.883234         0.718456
 C        -1.939157         2.899369        -0.239871
 C        -2.515791         2.657130        -1.448772
 C        -2.268991         1.633678        -2.486526
 O        -1.987505         0.384379        -1.946509
 C        -0.728350         0.179755        -1.264433
 H         0.212469        -1.004958         0.920831
 H        -3.101717         0.489278         0.318656
 H        -2.220810        -0.001958         1.859107
 H        -0.916049         2.329546         1.557943
 H        -1.911049         3.897122         0.133375
 H        -2.737576         3.592078        -1.922956
 H        -3.001778         1.575162        -3.294806
 H        -1.354025         2.081547        -3.032023
 H        -0.426734        -0.899329        -1.361851
 H         0.155844         0.659360        -1.784033
