19
Iteration:  2586charge 0 multiplicity 1
 O         0.205718         0.080396         1.016500
 C        -0.945610         0.459468         0.262683
 C        -2.331712         0.568799         0.967014
 C        -1.453647         1.841550         0.562697
 C        -1.946125         2.897496        -0.299189
 C        -2.342036         2.808555        -1.565361
 C        -2.146430         1.646090        -2.469601
 O        -2.112862         0.279031        -1.826930
 C        -0.867993         0.040207        -1.104673
 H         0.784596         0.833299         1.169432
 H        -3.146369         0.308284         0.372368
 H        -2.375503         0.383084         1.988362
 H        -0.854616         2.179249         1.298945
 H        -2.283208         3.811883         0.146374
 H        -2.509278         3.775208        -1.964516
 H        -2.820456         1.422192        -3.280281
 H        -1.033608         1.770214        -2.928424
 H        -0.688671        -1.027597        -1.120481
 H         0.025005         0.561086        -1.731204
