19
Iteration:  3999charge 0 multiplicity 1
 O         0.230871         0.069067         1.032884
 C        -0.937791         0.540003         0.341637
 C        -2.233673         0.463658         0.989157
 C        -1.659837         1.880680         0.734757
 C        -2.057397         2.841476        -0.268076
 C        -2.061134         2.861723        -1.633677
 C        -2.167676         1.653681        -2.502878
 O        -2.125670         0.294348        -1.911573
 C        -0.897195         0.064742        -1.182863
 H         0.920180         0.718670         0.794661
 H        -2.941581         0.129062         0.228944
 H        -2.316908         0.030472         1.981258
 H        -1.055653         2.291766         1.574980
 H        -2.095697         3.972852         0.150944
 H        -2.329188         3.887263        -2.082597
 H        -3.112591         1.615827        -3.092419
 H        -1.361148         1.447089        -3.261476
 H        -0.978347        -1.089962        -1.062876
 H        -0.051768         0.428643        -1.680764
