19
Iteration:   143charge 0 multiplicity 1
 O         0.362305         0.179542         1.123713
 C        -0.873300         0.455598         0.327146
 C        -2.321979         0.299208         0.799791
 C        -1.537425         1.762873         0.634541
 C        -1.994260         2.887298        -0.251311
 C        -2.169809         2.863650        -1.610731
 C        -2.275653         1.649494        -2.451351
 O        -2.194876         0.417829        -1.801717
 C        -0.854968         0.144097        -1.256291
 H         0.026678        -0.198909         1.922140
 H        -3.074688        -0.053389         0.094533
 H        -2.516966        -0.021288         1.822564
 H        -1.290976         2.107293         1.675918
 H        -1.687232         3.881406         0.201594
 H        -2.285115         3.778246        -2.219189
 H        -3.178784         1.582923        -3.071133
 H        -1.455711         1.721965        -3.289110
 H        -0.629309        -0.872296        -1.533718
 H        -0.067139         0.696519        -1.827339
