19
Iteration:  1944charge 0 multiplicity 1
 O         0.251419         0.115736         0.910752
 C        -0.961150         0.465845         0.341696
 C        -2.247035         0.592873         1.204727
 C        -1.446639         1.876797         0.617823
 C        -2.076980         2.870937        -0.307403
 C        -2.383921         2.818996        -1.603265
 C        -1.839291         1.720974        -2.497684
 O        -2.073429         0.408944        -1.969351
 C        -1.122429        -0.192665        -1.113955
 H         0.992022         0.742297         0.561603
 H        -3.124788         0.024869         0.783544
 H        -2.279383         0.595037         2.315731
 H        -1.024713         2.441644         1.423931
 H        -2.764253         3.266286         0.387402
 H        -2.921824         3.600202        -2.053426
 H        -2.351587         1.752258        -3.396306
 H        -0.846401         1.783077        -2.847264
 H        -1.286636        -1.351779        -1.057165
 H        -0.122915        -0.168340        -1.664436
