19
Iteration:  4079charge 0 multiplicity 1
 O         0.117355        -0.055690         1.106700
 C        -0.867234         0.589217         0.347535
 C        -2.249454         0.523566         0.826065
 C        -1.514746         1.852471         0.705480
 C        -1.984812         2.901988        -0.276611
 C        -2.159200         2.781790        -1.646749
 C        -2.376931         1.593754        -2.460420
 O        -2.041291         0.284430        -1.907428
 C        -0.802794         0.202053        -1.128215
 H         0.880701         0.520938         1.259668
 H        -2.974049         0.472763         0.011704
 H        -2.503769         0.115710         1.797863
 H        -1.168054         2.198892         1.642821
 H        -1.797680         3.921702        -0.036598
 H        -2.256887         3.638556        -2.156978
 H        -3.463460         1.472967        -2.722629
 H        -1.859935         1.653325        -3.428123
 H        -0.399245        -0.799561        -1.150907
 H        -0.027199         0.719268        -1.581300
