19
Iteration:  3124charge 0 multiplicity 1
 O         0.171275         0.099097         0.943518
 C        -1.048620         0.479987         0.200399
 C        -2.195750         0.704093         1.143146
 C        -1.374294         1.924069         0.602536
 C        -2.173336         2.844950        -0.143996
 C        -2.457558         2.816154        -1.507975
 C        -1.851196         1.713654        -2.478752
 O        -2.010057         0.283806        -2.065652
 C        -1.055651        -0.210244        -1.105258
 H         0.967841         0.443008         0.456320
 H        -3.213774         0.653226         0.893191
 H        -1.981079         0.422105         2.141373
 H        -0.684199         2.314211         1.446166
 H        -2.544919         3.652512         0.429474
 H        -2.902291         3.728776        -1.927377
 H        -2.254993         1.840862        -3.515312
 H        -0.776325         1.887868        -2.704354
 H        -1.158790        -1.294732        -1.025663
 H         0.025185        -0.128691        -1.543881
