19
Iteration:  2335
 O         0.220056         0.153524         0.981842
 C        -0.974834         0.432936         0.234980
 C        -2.189669         0.655407         1.117231
 C        -1.417899         1.884714         0.590801
 C        -2.124133         2.826351        -0.286333
 C        -2.456907         2.748857        -1.573353
 C        -1.802971         1.767397        -2.440795
 O        -2.095446         0.323567        -1.935275
 C        -1.112230        -0.147887        -1.161927
 H         0.804091         0.867877         0.539983
 H        -3.215984         0.341418         0.632600
 H        -1.997855         0.330235         2.173359
 H        -0.743340         2.197095         1.430085
 H        -2.601966         3.804562         0.166516
 H        -2.949109         3.684169        -1.932342
 H        -2.003664         1.662260        -3.486906
 H        -0.710323         1.820070        -2.232612
 H        -1.344127        -1.219620        -0.990281
 H        -0.106581        -0.214134        -1.593643
