19
Iteration:  3982
 O         0.140955         0.041403         0.980077
 C        -0.943010         0.544075         0.255057
 C        -2.255231         0.512428         0.997096
 C        -1.517138         1.835836         0.619214
 C        -2.080643         2.968474        -0.244135
 C        -2.252676         2.810596        -1.559000
 C        -2.047694         1.604558        -2.479292
 O        -2.055830         0.349276        -1.874105
 C        -0.920615        -0.021560        -1.138858
 H         0.973729         0.617998         0.844182
 H        -3.256175         0.395048         0.599622
 H        -2.108546         0.322040         2.058986
 H        -1.160989         2.150936         1.602915
 H        -2.343131         3.835852         0.257016
 H        -2.401775         3.610408        -2.207896
 H        -2.948551         1.572953        -3.099448
 H        -1.168857         1.758213        -3.134993
 H        -0.716465        -1.028633        -1.186455
 H         0.154197         0.378444        -1.606419
