19
Iteration:  4463
 O         0.143348         0.143196         1.119242
 C        -0.931451         0.525687         0.352528
 C        -2.255228         0.390655         0.873686
 C        -1.569861         1.814176         0.746474
 C        -1.866935         2.886533        -0.295782
 C        -2.099447         2.787056        -1.622133
 C        -2.308015         1.542916        -2.467944
 O        -2.108083         0.367827        -1.876380
 C        -0.892132         0.117613        -1.210193
 H         0.860357         0.711776         0.968144
 H        -2.871620         0.164721         0.047756
 H        -2.549798         0.123597         1.846892
 H        -1.171501         2.222577         1.682483
 H        -1.653212         3.813267         0.021514
 H        -2.298027         3.698235        -2.208312
 H        -3.266769         1.644336        -2.995618
 H        -1.713286         1.720227        -3.442502
 H        -0.494378        -0.910452        -1.400016
 H        -0.146260         0.776042        -1.690572
