19
Iteration:  1656
 O         0.038658        -0.146767         1.294089
 C        -0.871321         0.441038         0.292072
 C        -2.198145         0.620203         0.963050
 C        -1.399872         1.894799         0.670050
 C        -1.970958         2.943787        -0.323385
 C        -2.326029         2.744633        -1.585904
 C        -2.369686         1.581002        -2.556723
 O        -2.073014         0.277890        -1.883238
 C        -0.714650         0.307522        -1.322125
 H         0.866447         0.218602         0.978533
 H        -3.051244         0.441816         0.270691
 H        -2.172332         0.326158         2.039699
 H        -0.767944         2.267632         1.437795
 H        -1.995066         4.000966         0.004306
 H        -2.492484         3.750494        -2.138245
 H        -3.298321         1.474424        -3.000492
 H        -1.668414         1.681535        -3.372802
 H        -0.427816        -0.817569        -1.445922
 H        -0.055016         1.069664        -1.755209
