19
Iteration:  1556
 O         0.171597         0.191013         0.904197
 C        -0.984214         0.445985         0.265679
 C        -2.117797         0.484215         1.154820
 C        -1.560112         1.858485         0.679150
 C        -2.144399         2.886710        -0.317201
 C        -2.135599         2.851635        -1.638062
 C        -1.870438         1.695106        -2.487162
 O        -2.158321         0.391541        -1.891236
 C        -1.083377        -0.149914        -1.081264
 H         0.878381         0.591716         0.456448
 H        -3.051805         0.030834         0.754633
 H        -1.750550         0.203574         2.187642
 H        -0.957126         2.371492         1.436522
 H        -2.596103         3.712087         0.210795
 H        -2.646978         3.614898        -2.146639
 H        -2.569254         1.658572        -3.236467
 H        -0.877308         1.730085        -3.028265
 H        -1.652818        -1.158623        -1.027153
 H        -0.055226        -0.016167        -1.503579
