19
Iteration:  2211charge 0 multiplicity 1
 O         0.146022         0.003816         0.924419
 C        -0.954635         0.542331         0.290847
 C        -2.278634         0.547849         1.051211
 C        -1.443986         1.896862         0.681560
 C        -2.084998         2.975282        -0.260987
 C        -2.226908         2.825661        -1.609645
 C        -2.084514         1.614598        -2.507613
 O        -2.043169         0.285666        -1.891265
 C        -0.889683         0.005913        -1.097080
 H         0.839548         0.729299         0.943559
 H        -3.026954         0.341108         0.336298
 H        -2.506791         0.157191         2.044474
 H        -0.857170         2.372176         1.453273
 H        -2.334013         3.900352         0.196007
 H        -2.834767         3.570297        -2.168730
 H        -2.999996         1.465881        -3.081415
 H        -1.316649         1.640310        -3.202837
 H        -0.907110        -1.095406        -0.882278
 H         0.046652         0.302230        -1.525273
