19
Iteration:  1308charge 0 multiplicity 1
 O         0.062822        -0.099081         1.087761
 C        -0.949993         0.630902         0.263023
 C        -2.270954         0.503828         0.909015
 C        -1.503117         1.921577         0.744273
 C        -1.826013         2.844997        -0.370187
 C        -2.183307         2.684329        -1.625801
 C        -2.426415         1.542968        -2.411789
 O        -2.008533         0.331974        -1.860295
 C        -0.788350         0.302690        -1.187921
 H         0.762701         0.502713         1.231543
 H        -3.173739         0.368238         0.296887
 H        -2.212574         0.130326         1.913039
 H        -0.962151         2.289863         1.616846
 H        -1.658229         3.898569        -0.138048
 H        -2.354411         3.563118        -2.184645
 H        -3.515037         1.467522        -2.699860
 H        -1.845839         1.501266        -3.380553
 H        -0.340274        -0.648036        -1.256390
 H        -0.008052         0.936490        -1.657079
