19
Iteration:   211charge 0 multiplicity 1
 O         0.258958        -0.056937         0.950062
 C        -0.927171         0.540494         0.381489
 C        -2.252955         0.676281         1.184534
 C        -1.568030         1.967514         0.810018
 C        -2.106671         2.844257        -0.213799
 C        -2.364056         2.728145        -1.490364
 C        -2.113966         1.664211        -2.541459
 O        -1.966748         0.326723        -2.164382
 C        -0.896563         0.050805        -1.225029
 H         0.740462        -0.503276         0.162005
 H        -3.149582         0.303107         0.650353
 H        -2.324535         0.298810         2.224988
 H        -1.349644         2.381815         1.766418
 H        -2.088682         3.936473         0.052892
 H        -2.789802         3.560453        -2.076384
 H        -2.879785         1.675786        -3.357802
 H        -1.054445         1.920287        -2.958579
 H        -0.968935        -1.030406        -1.139487
 H         0.132275         0.399822        -1.538271
