19
Iteration:   360charge 0 multiplicity 1
 O         0.248241         0.376066         0.915420
 C        -1.041450         0.489593         0.333763
 C        -2.156233         0.342725         1.223539
 C        -1.678646         1.824577         0.771108
 C        -2.024781         2.784206        -0.245083
 C        -2.148262         2.724456        -1.619252
 C        -2.002835         1.734596        -2.600245
 O        -2.067245         0.431485        -2.021936
 C        -1.059579        -0.071971        -1.131876
 H         0.650817        -0.476427         0.630662
 H        -3.207546         0.173509         0.863472
 H        -1.949031         0.054567         2.248200
 H        -1.083234         2.323726         1.626774
 H        -2.208235         3.795210         0.146444
 H        -2.255692         3.777504        -2.105183
 H        -2.782742         1.658117        -3.375278
 H        -1.114989         2.016157        -3.292649
 H        -1.371290        -1.156289        -1.098766
 H        -0.047010        -0.091069        -1.502096
