19
Iteration:   457charge 0 multiplicity 1
 O         0.188486        -0.097810         1.052788
 C        -0.943075         0.383663         0.376066
 C        -2.314543         0.748377         1.058549
 C        -1.334363         1.904147         0.617759
 C        -2.021334         2.870187        -0.240954
 C        -2.402446         2.790336        -1.535451
 C        -2.318342         1.610121        -2.562848
 O        -1.915760         0.271647        -2.078987
 C        -0.772968         0.141859        -1.171698
 H         0.219867         0.390563         1.852692
 H        -3.142664         0.917806         0.385636
 H        -2.577568         0.525848         2.091877
 H        -0.601992         2.286828         1.398648
 H        -2.360324         3.792154         0.226376
 H        -3.225702         3.575347        -1.683764
 H        -3.244984         1.417593        -3.185344
 H        -1.613164         1.910781        -3.375431
 H        -0.451614        -0.949006        -1.307334
 H         0.116927         0.872261        -1.266274
