19
Iteration:  1800charge 0 multiplicity 1
 O         0.138993         0.000933         1.005955
 C        -0.877273         0.558750         0.329843
 C        -2.246413         0.455950         0.978537
 C        -1.560696         1.891479         0.714506
 C        -2.014884         2.918802        -0.320360
 C        -2.153436         2.822717        -1.654762
 C        -2.225605         1.596727        -2.557001
 O        -2.115575         0.355909        -1.761440
 C        -0.804743         0.068253        -1.160769
 H         1.076893         0.149126         0.659004
 H        -3.134928         0.346190         0.382809
 H        -2.314083         0.214847         2.001396
 H        -1.166685         2.343486         1.664597
 H        -2.245363         3.898691         0.131884
 H        -2.413455         3.818833        -2.086430
 H        -3.200209         1.531848        -3.066994
 H        -1.459564         1.706658        -3.423425
 H        -0.742811        -1.131314        -1.236812
 H         0.006897         0.577613        -1.666664
