19
Iteration:  3647
 O         0.237674         0.048435         1.082600
 C        -0.966581         0.460106         0.381540
 C        -2.373218         0.491673         0.899787
 C        -1.630545         1.788658         0.694788
 C        -1.783201         2.898241        -0.283489
 C        -2.118396         2.807213        -1.628278
 C        -2.428468         1.574976        -2.504465
 O        -2.041743         0.277641        -1.913531
 C        -0.773647         0.243170        -1.163091
 H         0.855227         0.748966         1.043273
 H        -3.121693         0.278746         0.137306
 H        -2.579059         0.357731         1.971737
 H        -1.271399         2.194426         1.624627
 H        -1.533986         3.840757         0.080800
 H        -2.423865         3.661618        -2.204583
 H        -3.554024         1.509007        -2.738371
 H        -1.930466         1.660479        -3.436959
 H        -0.313360        -0.776441        -1.215845
 H        -0.183009         1.048674        -1.501022
