19
Iteration:  1173charge 0 multiplicity 1
 O         0.257579         0.168642         0.863774
 C        -0.952694         0.523772         0.281388
 C        -2.082064         0.474420         1.150066
 C        -1.588444         1.843715         0.603701
 C        -2.285866         2.825860        -0.272649
 C        -2.181208         2.771037        -1.648013
 C        -1.756925         1.674593        -2.569331
 O        -2.175271         0.483518        -1.804244
 C        -1.171624        -0.169704        -1.044850
 H         0.881773         0.872735         0.737744
 H        -3.068813         0.052645         0.813897
 H        -1.991707         0.437426         2.240170
 H        -0.978679         2.308017         1.393495
 H        -2.469366         3.791270         0.215741
 H        -2.395163         3.747554        -2.198636
 H        -2.443538         1.795080        -3.507059
 H        -0.695045         1.571901        -2.870959
 H        -1.527206        -1.185623        -0.903929
 H        -0.222428        -0.225847        -1.654322
