19
Iteration:  2087charge 0 multiplicity 1
 O         0.105563        -0.009653         1.086334
 C        -0.953235         0.523659         0.272391
 C        -2.344679         0.690199         0.816465
 C        -1.422195         1.880553         0.766269
 C        -1.805237         2.891360        -0.283406
 C        -2.285677         2.628573        -1.528244
 C        -2.363341         1.519208        -2.415116
 O        -2.029043         0.243168        -1.909026
 C        -0.777179         0.270540        -1.232554
 H         0.736316         0.756061         1.204482
 H        -3.191616         0.742851         0.121536
 H        -2.418652         0.191625         1.848732
 H        -1.051349         2.115848         1.794195
 H        -1.875805         3.956796         0.053662
 H        -2.411180         3.515541        -2.228691
 H        -3.327162         1.298202        -2.952581
 H        -1.707749         1.771027        -3.289397
 H        -0.448243        -0.823326        -1.292429
 H         0.075417         0.799667        -1.617568
