19
Iteration:  4823
 O         0.213826         0.034868         0.990009
 C        -0.933386         0.511340         0.358536
 C        -2.283650         0.363222         0.872706
 C        -1.626603         1.835502         0.661690
 C        -1.926460         2.912008        -0.285856
 C        -2.081328         2.799968        -1.625927
 C        -2.216616         1.556716        -2.575128
 O        -2.136590         0.397072        -1.710474
 C        -0.874084         0.186628        -1.140714
 H         0.744193         0.926942         1.105828
 H        -3.240030         0.080945         0.255154
 H        -2.411931         0.089790         2.016758
 H        -1.245702         2.195153         1.703487
 H        -1.764946         3.866207         0.148660
 H        -2.440316         3.699022        -2.228518
 H        -3.170942         1.479161        -3.105006
 H        -1.386492         1.594026        -3.411265
 H        -0.632645        -0.836596        -1.303733
 H        -0.194803         0.924453        -1.607087
