19
Iteration:  3228
 O         0.214267         0.028422         1.130425
 C        -0.920198         0.531477         0.355356
 C        -2.302876         0.366650         0.928970
 C        -1.508674         1.884510         0.659738
 C        -1.835543         2.855592        -0.308976
 C        -2.297580         2.793318        -1.623545
 C        -2.295141         1.688725        -2.577804
 O        -2.099649         0.356426        -1.889074
 C        -0.871924         0.119196        -1.079869
 H         0.938701         0.569679         0.964974
 H        -2.990766        -0.029433         0.175217
 H        -2.436216         0.278085         2.012346
 H        -1.243644         2.222900         1.618492
 H        -1.592607         3.882055         0.029974
 H        -2.356458         3.654566        -2.216161
 H        -3.360398         1.589849        -3.129672
 H        -1.520833         1.874824        -3.380073
 H        -0.544902        -0.939069        -1.292786
 H        -0.159702         0.780360        -1.657259
