19
Iteration:   254
 O         0.107981        -0.036801         1.035958
 C        -0.957211         0.459906         0.198045
 C        -2.177219         0.712380         1.099195
 C        -1.356325         1.915775         0.573249
 C        -2.203942         2.832989        -0.177426
 C        -2.479205         2.745998        -1.462855
 C        -1.939640         1.740102        -2.420703
 O        -2.030160         0.327758        -2.030193
 C        -0.862621        -0.103189        -1.308743
 H         0.590800         0.793642         1.274432
 H        -3.264362         0.716288         0.877455
 H        -1.885203         0.490924         2.132368
 H        -0.625198         2.427407         1.168233
 H        -2.762656         3.592939         0.417929
 H        -3.125961         3.509913        -1.920917
 H        -2.496632         1.802230        -3.336098
 H        -0.911128         2.101582        -2.460487
 H        -0.993966        -1.179735        -1.330206
 H         0.126985         0.350480        -1.708490
