19
Iteration:  2340
 O         0.223726         0.176428         0.966058
 C        -1.009551         0.372465         0.269237
 C        -2.193466         0.672085         1.111251
 C        -1.389377         1.871323         0.616512
 C        -2.155099         2.799568        -0.264367
 C        -2.437329         2.762172        -1.586741
 C        -1.823211         1.746120        -2.432512
 O        -2.094241         0.340186        -1.966979
 C        -1.101660        -0.133572        -1.132534
 H         0.707200         0.885398         0.564482
 H        -3.120136         0.486746         0.720235
 H        -2.009389         0.379282         2.108329
 H        -0.783982         2.299361         1.390828
 H        -2.416539         3.734915         0.069087
 H        -2.896199         3.659627        -1.938943
 H        -2.049470         1.720351        -3.531279
 H        -0.732398         1.866137        -2.418208
 H        -1.215492        -1.237046        -1.081813
 H        -0.059829        -0.223383        -1.616679
