19
Iteration:  4683
 O         0.225409         0.131151         0.945046
 C        -0.983524         0.498659         0.326680
 C        -2.238614         0.487934         1.166821
 C        -1.503289         1.823841         0.671530
 C        -2.145324         2.898225        -0.243646
 C        -2.277649         2.828100        -1.587077
 C        -1.917927         1.700740        -2.547236
 O        -2.098574         0.388501        -1.944120
 C        -0.974798        -0.127085        -1.169720
 H         0.971486         0.522225         0.448853
 H        -3.133028         0.281031         0.493727
 H        -2.357653         0.187281         2.256224
 H        -0.902165         2.386697         1.436340
 H        -2.403518         3.803658         0.193613
 H        -2.853645         3.649003        -2.098559
 H        -2.589284         1.685076        -3.472259
 H        -0.799603         1.842855        -2.871626
 H        -1.248430        -1.155287        -0.964073
 H        -0.035418         0.079303        -1.620503
