19
Iteration:  2131
 O         0.125389        -0.072513         1.062316
 C        -0.940926         0.517459         0.279484
 C        -2.301386         0.568161         0.999533
 C        -1.576490         1.903143         0.711182
 C        -1.948323         2.949135        -0.311984
 C        -2.097473         2.803487        -1.631600
 C        -2.449378         1.471474        -2.385188
 O        -1.942015         0.309208        -1.949729
 C        -0.784979         0.158669        -1.220596
 H         0.788703         0.665864         1.184836
 H        -3.228349         0.473464         0.425741
 H        -2.297398         0.392892         2.104746
 H        -1.093822         2.494630         1.536006
 H        -1.761720         4.014644         0.028149
 H        -2.061036         3.729148        -2.321212
 H        -3.598116         1.369758        -2.657173
 H        -2.006024         1.681214        -3.307138
 H        -0.364797        -0.905108        -1.326432
 H         0.062948         0.745355        -1.534791
