19
Iteration:  2913
 O         0.111202        -0.034258         1.103373
 C        -0.982559         0.455716         0.344690
 C        -2.294021         0.666637         0.830334
 C        -1.486543         1.923907         0.779178
 C        -1.797932         2.903828        -0.315479
 C        -2.308988         2.736002        -1.546457
 C        -2.351639         1.492043        -2.424779
 O        -1.974689         0.268335        -1.931548
 C        -0.773918         0.251128        -1.190501
 H         0.954061         0.380019         0.725794
 H        -3.076485         0.508644        -0.016214
 H        -2.648960         0.219973         1.821679
 H        -0.933044         2.184748         1.621623
 H        -2.032368         3.970026         0.063331
 H        -2.635772         3.650082        -2.170484
 H        -3.486226         1.280832        -2.856970
 H        -1.880684         1.630688        -3.409994
 H        -0.245410        -0.716173        -1.263424
 H        -0.062469         0.906651        -1.753748
