19
Iteration:    90charge 0 multiplicity 1
 O         0.227514         0.052022         0.884853
 C        -1.015263         0.418684         0.317945
 C        -2.309326         0.640973         1.062197
 C        -1.524014         1.839754         0.752174
 C        -2.102841         2.810289        -0.158470
 C        -2.162595         2.717281        -1.470502
 C        -2.285715         1.613848        -2.500635
 O        -1.930319         0.294090        -2.068981
 C        -0.783380         0.257502        -1.197443
 H         0.011064        -0.631709         1.515742
 H        -3.190866         0.681810         0.384983
 H        -2.567776         0.189519         2.022989
 H        -0.834922         2.265173         1.528173
 H        -2.151673         3.900490         0.213345
 H        -2.064918         3.634572        -2.138516
 H        -3.356514         1.456231        -2.761925
 H        -1.714248         1.870047        -3.358815
 H        -0.324453        -0.682015        -1.458522
 H        -0.168939         1.113144        -1.447482
