19
Iteration:  1138
 O         0.320800         0.247314         0.855281
 C        -1.009201         0.489298         0.257552
 C        -2.168730         0.532530         1.212905
 C        -1.563305         1.855587         0.592995
 C        -2.249795         2.845709        -0.259925
 C        -2.247397         2.844927        -1.606807
 C        -1.729788         1.691029        -2.401802
 O        -2.185658         0.361446        -1.918821
 C        -1.167817        -0.212848        -1.122099
 H         0.898934         0.062909         0.144184
 H        -3.153936         0.189148         0.850016
 H        -2.037207         0.634347         2.308947
 H        -0.923289         2.235789         1.348111
 H        -2.510287         3.767443         0.154833
 H        -2.376283         3.779355        -2.220034
 H        -2.019258         1.725653        -3.486474
 H        -0.606706         1.741441        -2.404351
 H        -1.488916        -1.282849        -0.983979
 H        -0.135213        -0.221036        -1.547161
