19
Iteration:  3462charge 0 multiplicity 1
 O         0.249487         0.068372         0.925346
 C        -0.913681         0.475568         0.240997
 C        -2.088424         0.650289         1.212805
 C        -1.516743         1.926828         0.709141
 C        -2.343679         2.754109        -0.262953
 C        -2.327764         2.834163        -1.609469
 C        -1.667431         1.729291        -2.504070
 O        -2.110672         0.429807        -1.996564
 C        -1.201244        -0.180538        -1.133387
 H         0.999060         0.138197         0.315262
 H        -3.013157         0.375666         0.710491
 H        -1.989630         0.410918         2.293688
 H        -0.958233         2.379087         1.499622
 H        -2.922529         3.519363         0.286619
 H        -3.007093         3.637435        -2.048411
 H        -2.119933         1.795080        -3.534253
 H        -0.554742         1.771609        -2.466932
 H        -1.579246        -1.183035        -0.911199
 H        -0.183313        -0.166544        -1.623519
