19
Iteration:  2800charge 0 multiplicity 1
 O         0.174745         0.012745         1.062766
 C        -0.891959         0.563178         0.266454
 C        -2.210247         0.516363         0.932683
 C        -1.594423         1.910950         0.662854
 C        -2.038243         2.915293        -0.304961
 C        -2.186226         2.773173        -1.638990
 C        -2.153278         1.609033        -2.462375
 O        -2.087881         0.337603        -1.787049
 C        -0.888545         0.058452        -1.169865
 H         0.977918         0.159732         0.595461
 H        -2.977173         0.222882         0.261919
 H        -2.287461         0.171317         1.937435
 H        -1.378009         2.352714         1.687090
 H        -2.355554         3.871638         0.057710
 H        -2.324094         3.694939        -2.120807
 H        -3.084575         1.495771        -3.041239
 H        -1.456948         1.786706        -3.183191
 H        -0.688874        -1.044421        -1.105636
 H        -0.073900         0.445473        -1.698041
