19
Iteration:  1768charge 0 multiplicity 1
 O         0.196652         0.061446         1.157919
 C        -0.849216         0.441209         0.363570
 C        -2.302417         0.466122         0.940912
 C        -1.587705         1.758928         0.617856
 C        -1.737860         2.820880        -0.363722
 C        -2.278829         2.816461        -1.621885
 C        -2.356641         1.609340        -2.529587
 O        -2.183916         0.335618        -1.847064
 C        -0.806103         0.246109        -1.178049
 H         0.963803         0.656659         1.055621
 H        -3.170757         0.137855         0.394417
 H        -2.510427         0.407935         1.971948
 H        -1.256577         2.230634         1.587347
 H        -1.487942         3.843627         0.019088
 H        -2.202080         3.820269        -2.079422
 H        -3.217344         1.507036        -3.131276
 H        -1.445117         1.756618        -3.198011
 H        -0.412871        -0.770405        -1.555888
 H        -0.258790         1.057971        -1.555204
