19
Iteration:   244charge 0 multiplicity 1
 O         0.010151         0.019064         0.950075
 C        -1.032451         0.493801         0.192374
 C        -2.154658         0.695354         1.168881
 C        -1.289166         1.894487         0.594686
 C        -2.183449         2.789654        -0.144726
 C        -2.434380         2.787455        -1.483173
 C        -1.966909         1.695242        -2.458329
 O        -1.954191         0.332383        -2.052140
 C        -0.890566        -0.036472        -1.202193
 H         0.734481         0.636196         0.991676
 H        -3.150525         0.584444         0.708098
 H        -1.949640         0.216988         2.136246
 H        -0.752898         2.389977         1.341854
 H        -2.588224         3.562996         0.531550
 H        -3.347640         3.288017        -1.730401
 H        -2.596409         1.734028        -3.351553
 H        -0.938479         1.894634        -2.933237
 H        -0.792875        -1.123559        -1.132342
 H         0.088947         0.276354        -1.723151
