19
Iteration:  1489charge 0 multiplicity 1
 O         0.051302         0.072289         0.989012
 C        -0.952513         0.510581         0.154258
 C        -2.119006         0.744887         1.141919
 C        -1.365709         1.941192         0.572631
 C        -2.235837         2.853036        -0.185071
 C        -2.454312         2.715005        -1.487600
 C        -1.815350         1.700290        -2.420134
 O        -2.053818         0.352692        -2.024907
 C        -1.022327        -0.205308        -1.173020
 H         0.930346         0.312484         0.522261
 H        -3.120715         0.541261         0.888097
 H        -1.667791         0.424596         2.041201
 H        -0.604056         2.240632         1.332413
 H        -2.524055         3.816264         0.274105
 H        -2.856586         3.470395        -2.079717
 H        -2.208821         1.846676        -3.365788
 H        -0.655964         1.792198        -2.550595
 H        -1.444608        -1.199229        -0.783173
 H        -0.052225        -0.239367        -1.721355
