19
Iteration:   137
 O         0.340764         0.146140         1.095598
 C        -0.892295         0.486284         0.343934
 C        -2.261605         0.239465         0.817304
 C        -1.563198         1.788532         0.617151
 C        -1.951401         2.912946        -0.252604
 C        -2.185452         2.876745        -1.612582
 C        -2.260607         1.661879        -2.450136
 O        -2.162041         0.391469        -1.858569
 C        -0.886693         0.163510        -1.198900
 H         0.040346        -0.225540         1.929487
 H        -2.981880        -0.198854         0.115794
 H        -2.561994         0.120193         1.883868
 H        -1.371345         2.164207         1.603510
 H        -1.699538         3.910237         0.088054
 H        -2.377252         3.770961        -2.242041
 H        -3.304324         1.630206        -2.871410
 H        -1.530766         1.736913        -3.216962
 H        -0.670688        -0.937055        -1.288624
 H        -0.192592         0.799763        -1.739089
