19
Iteration:  3418
 O         0.247636         0.163406         0.899792
 C        -0.976250         0.419962         0.311541
 C        -2.244027         0.501575         1.130478
 C        -1.589699         1.833731         0.658838
 C        -2.032708         2.833028        -0.279850
 C        -2.274973         2.863496        -1.563790
 C        -1.914595         1.728769        -2.509436
 O        -2.136402         0.352366        -1.935567
 C        -1.031287        -0.132984        -1.120937
 H         0.812463         0.893624         0.541192
 H        -3.199132         0.262908         0.672048
 H        -2.101676         0.480878         2.229924
 H        -0.980433         2.358074         1.383447
 H        -2.417245         3.738676         0.233270
 H        -2.525748         3.812858        -2.147733
 H        -2.459962         1.749895        -3.502373
 H        -0.827505         1.796297        -2.559374
 H        -1.082492        -1.230419        -1.031560
 H        -0.054806         0.229413        -1.547637
