19
Iteration:  4102charge 0 multiplicity 1
 O         0.045986        -0.113033         1.149074
 C        -0.937141         0.552043         0.271823
 C        -2.290494         0.631200         0.902274
 C        -1.475087         1.951774         0.687961
 C        -1.869080         2.957845        -0.252189
 C        -2.332692         2.747848        -1.518666
 C        -2.357171         1.529071        -2.485718
 O        -1.940866         0.278795        -1.957459
 C        -0.720967         0.165372        -1.249222
 H         0.905309         0.316034         0.976419
 H        -3.252743         0.588618         0.358647
 H        -2.268114         0.333456         1.965333
 H        -1.082103         2.341860         1.604541
 H        -1.970812         3.904543         0.130617
 H        -2.858575         3.537991        -1.934014
 H        -3.220662         1.189603        -3.063410
 H        -1.615339         1.786904        -3.204457
 H        -0.404201        -0.824421        -1.219547
 H         0.063663         0.663479        -1.728092
