19
Iteration:  3603charge 0 multiplicity 1
 O         0.132684         0.082013         1.063335
 C        -0.910886         0.524184         0.189463
 C        -2.232720         0.539149         0.991741
 C        -1.629658         1.818795         0.657392
 C        -2.005549         2.927432        -0.247824
 C        -2.148944         2.838084        -1.545884
 C        -2.121168         1.585101        -2.499883
 O        -2.109186         0.324950        -1.816147
 C        -0.870225         0.044419        -1.248709
 H         0.870416         0.583190         0.838419
 H        -3.069260         0.009090         0.502831
 H        -1.956598         0.186340         1.978372
 H        -1.084791         2.204543         1.574746
 H        -2.164526         3.899556         0.128975
 H        -2.448379         3.812810        -1.993456
 H        -3.125218         1.464513        -3.076727
 H        -1.308974         1.554930        -3.174598
 H        -0.828849        -1.091629        -1.214099
 H        -0.048244         0.460260        -1.845995
