19
Iteration:  4591
 O         0.278388         0.049642         1.000151
 C        -0.962294         0.431057         0.283854
 C        -2.265455         0.566789         1.050619
 C        -1.538415         1.851705         0.623801
 C        -2.117611         2.885436        -0.291660
 C        -2.352819         2.857865        -1.612162
 C        -1.985404         1.705672        -2.534199
 O        -2.052590         0.397966        -1.890535
 C        -0.930048        -0.150422        -1.075024
 H         0.996122         0.745426         0.707456
 H        -3.154818         0.347359         0.504747
 H        -2.172769         0.251743         2.054356
 H        -1.084386         2.318179         1.485161
 H        -2.603893         3.853628         0.226314
 H        -2.795294         3.803034        -1.968723
 H        -2.692464         1.675559        -3.356667
 H        -0.906285         1.883901        -2.871492
 H        -1.123259        -1.174756        -1.135587
 H        -0.063327         0.272253        -1.518079
