19
Iteration:  2015
 O         0.250624         0.069176         0.967090
 C        -0.984194         0.454429         0.386839
 C        -2.329732         0.579114         1.054626
 C        -1.470394         1.864476         0.704442
 C        -1.992534         2.833238        -0.336457
 C        -2.318625         2.778692        -1.657926
 C        -2.066870         1.615833        -2.483917
 O        -2.117014         0.350836        -1.882216
 C        -0.913637         0.093898        -1.110539
 H         0.988509         0.406715         0.352724
 H        -3.100923         0.368333         0.376016
 H        -2.463405         0.187208         2.060470
 H        -0.971366         2.275900         1.617670
 H        -2.301536         3.785180         0.169778
 H        -2.416648         3.789342        -2.182782
 H        -2.772528         1.541317        -3.366632
 H        -1.191564         1.672080        -3.042587
 H        -0.757645        -0.952546        -1.126903
 H        -0.056292         0.487902        -1.670214
