19
Iteration:  1103
 O         0.226228         0.092744         0.881091
 C        -0.998235         0.558770         0.268784
 C        -2.212100         0.643624         1.170180
 C        -1.333444         1.963011         0.657049
 C        -2.216982         2.856659        -0.242691
 C        -2.395091         2.690185        -1.516846
 C        -1.769017         1.721537        -2.459997
 O        -2.069390         0.329269        -2.075129
 C        -1.129333        -0.178389        -1.097896
 H         0.882124         0.056109         0.227446
 H        -3.218031         0.598747         0.819322
 H        -2.196946         0.747367         2.268382
 H        -0.890850         2.514532         1.485356
 H        -2.788460         3.587662         0.326871
 H        -3.056938         3.463796        -1.874453
 H        -2.190393         1.785764        -3.431271
 H        -0.637850         1.884444        -2.487308
 H        -1.469209        -1.216959        -0.725304
 H        -0.105128        -0.317392        -1.633823
