19
Iteration:  2208charge 0 multiplicity 1
 O         0.158914        -0.004015         0.927659
 C        -0.971082         0.542851         0.295647
 C        -2.294984         0.532442         1.036060
 C        -1.456360         1.894496         0.668573
 C        -2.050786         2.960404        -0.281231
 C        -2.236174         2.839175        -1.606623
 C        -2.104223         1.595651        -2.477758
 O        -2.020870         0.283859        -1.851615
 C        -0.898724         0.032305        -1.110305
 H         0.813179         0.753615         0.871165
 H        -3.056402         0.396371         0.282850
 H        -2.508662         0.168845         1.991581
 H        -0.904247         2.399870         1.447675
 H        -2.288115         3.945045         0.139554
 H        -2.877281         3.679299        -2.060773
 H        -3.034862         1.476970        -3.233076
 H        -1.226052         1.653290        -3.236421
 H        -0.827969        -1.084879        -0.890377
 H         0.038145         0.281155        -1.594752
