19
Iteration:  3047
 O         0.223061         0.127046         0.939543
 C        -0.988083         0.396605         0.290023
 C        -2.169002         0.644528         1.166405
 C        -1.475106         1.882423         0.570554
 C        -2.265296         2.890820        -0.218130
 C        -2.314274         2.818364        -1.553028
 C        -1.834533         1.744145        -2.530765
 O        -2.058110         0.352000        -1.950794
 C        -1.061707        -0.200191        -1.128576
 H         1.004910         0.269400         0.337614
 H        -3.205718         0.479371         0.928290
 H        -1.929912         0.362712         2.142137
 H        -0.783320         2.351770         1.349328
 H        -2.652246         3.724225         0.250888
 H        -2.706619         3.685642        -1.978127
 H        -2.545805         1.836821        -3.403123
 H        -0.785611         1.825014        -2.799905
 H        -1.425440        -1.184355        -0.930045
 H        -0.129626        -0.213982        -1.653349
