19
Iteration:  3726
 O        -0.009071        -0.046630         1.123696
 C        -0.977528         0.481463         0.319102
 C        -2.339533         0.618590         0.896741
 C        -1.339926         1.905284         0.697454
 C        -1.822503         2.926618        -0.343814
 C        -2.491897         2.753343        -1.502673
 C        -2.369952         1.562833        -2.490095
 O        -1.920988         0.284117        -1.937424
 C        -0.620444         0.181227        -1.183163
 H         0.936513         0.148497         0.924258
 H        -3.153214         0.618823         0.158704
 H        -2.462569         0.202719         1.897544
 H        -0.889726         2.319064         1.526599
 H        -1.823733         3.987078         0.114520
 H        -2.869908         3.574061        -2.097417
 H        -3.430003         1.247229        -2.811053
 H        -1.685438         1.766874        -3.348538
 H        -0.158325        -0.770831        -1.369463
 H         0.142794         0.866660        -1.468662
