19
Iteration:   123
 O         0.231385         0.076198         0.932664
 C        -0.908864         0.576275         0.367676
 C        -2.178590         0.264774         0.939355
 C        -1.704310         1.798675         0.656132
 C        -1.799507         2.940685        -0.304967
 C        -2.212638         2.883206        -1.602688
 C        -2.313102         1.678171        -2.474483
 O        -2.036401         0.310085        -1.929855
 C        -0.876441         0.193859        -1.077869
 H        -0.057702        -0.355004         1.809974
 H        -2.943954        -0.205248         0.296184
 H        -2.283250         0.133389         2.035495
 H        -1.518450         2.174185         1.697942
 H        -2.071109         3.881779         0.280169
 H        -2.457436         3.896410        -2.038917
 H        -3.338255         1.599351        -2.909250
 H        -1.737194         1.835674        -3.386917
 H        -0.618676        -0.846416        -1.157295
 H         0.024939         0.600858        -1.494765
