19
Iteration:  3748
 O         0.050577        -0.085474         1.110496
 C        -0.936117         0.534341         0.255367
 C        -2.229244         0.630990         0.967604
 C        -1.463581         1.904700         0.627713
 C        -2.012714         2.929510        -0.272830
 C        -2.343104         2.793685        -1.568496
 C        -2.274850         1.565616        -2.444230
 O        -1.900312         0.300601        -1.974220
 C        -0.782731         0.120789        -1.165048
 H         0.953393         0.245079         1.073000
 H        -3.201625         0.489866         0.476197
 H        -2.090362         0.379965         2.010097
 H        -0.943978         2.344412         1.441083
 H        -2.181598         3.957921         0.190097
 H        -2.926015         3.542425        -2.083591
 H        -3.300875         1.359168        -2.897122
 H        -1.517447         1.856709        -3.251431
 H        -0.657113        -0.956992        -1.158512
 H         0.156947         0.497528        -1.557492
