19
Iteration:  3546charge 0 multiplicity 1
 O         0.196792         0.015145         1.010883
 C        -0.985541         0.500740         0.292100
 C        -2.187732         0.603622         1.202037
 C        -1.410574         1.930505         0.660711
 C        -2.161901         2.852984        -0.252514
 C        -2.418506         2.697252        -1.577574
 C        -1.827155         1.775116        -2.517862
 O        -2.072998         0.407010        -2.014464
 C        -1.047878        -0.110411        -1.211297
 H         1.027393         0.328636         0.481810
 H        -3.169179         0.544135         0.719091
 H        -2.126393         0.300807         2.264564
 H        -0.669586         2.474347         1.430695
 H        -2.693976         3.762875         0.066637
 H        -3.247240         3.381792        -1.944694
 H        -2.250531         1.818567        -3.569320
 H        -0.774045         1.890043        -2.655208
 H        -1.335292        -1.200257        -0.948276
 H        -0.086055        -0.132504        -1.712805
