19
Iteration:  2742charge 0 multiplicity 1
 O         0.225267         0.095279         0.920982
 C        -1.074716         0.503797         0.279653
 C        -2.213671         0.599305         1.240098
 C        -1.444757         1.865762         0.610364
 C        -2.088031         2.870936        -0.236203
 C        -2.440205         2.784247        -1.546918
 C        -1.839554         1.660652        -2.579434
 O        -2.039855         0.305133        -1.997211
 C        -1.068424        -0.075119        -1.111821
 H         0.801620         0.930008         0.797864
 H        -3.254666         0.460133         0.716137
 H        -2.070096         0.185137         2.304593
 H        -0.671568         2.319818         1.343376
 H        -2.188879         3.937691         0.163953
 H        -2.977454         3.671197        -2.056996
 H        -2.204187         1.603264        -3.569170
 H        -0.860859         1.879047        -2.522887
 H        -1.188289        -1.184159        -1.101342
 H        -0.138664         0.190791        -1.506510
