19
Iteration:  3339charge 0 multiplicity 1
 O         0.041590        -0.096521         1.189204
 C        -0.896791         0.434557         0.321710
 C        -2.285213         0.605245         0.917508
 C        -1.413507         1.831202         0.664321
 C        -1.876160         2.895472        -0.375278
 C        -2.347464         2.808742        -1.599728
 C        -2.390066         1.595509        -2.470209
 O        -2.009664         0.335273        -1.882699
 C        -0.692095         0.233185        -1.214818
 H         0.957681         0.258911         0.891019
 H        -3.061197         0.192607         0.280427
 H        -2.311280         0.191548         1.885889
 H        -1.079342         2.501692         1.528387
 H        -1.953841         3.806483         0.187361
 H        -2.706612         3.633626        -2.122808
 H        -3.451525         1.551269        -2.949325
 H        -1.817562         1.818646        -3.396042
 H        -0.139940        -0.734742        -1.352547
 H         0.052671         1.023282        -1.546385
