19
Iteration:  1077
 O         0.150750        -0.111275         1.024731
 C        -0.992384         0.505656         0.194701
 C        -2.033888         0.716022         1.217775
 C        -1.359571         2.000511         0.642781
 C        -2.263401         2.945666        -0.270417
 C        -2.509726         2.749458        -1.600626
 C        -1.861152         1.705986        -2.424851
 O        -2.016139         0.318246        -2.091964
 C        -1.070437        -0.127154        -1.151783
 H         0.985081         0.323030         0.971637
 H        -3.103820         0.515740         0.882159
 H        -1.841712         0.454152         2.255197
 H        -0.516481         2.574735         1.120940
 H        -2.815501         3.786037         0.261452
 H        -3.278661         3.461500        -1.949324
 H        -2.276786         1.763307        -3.457087
 H        -0.787441         1.951983        -2.413634
 H        -1.146254        -1.181243        -1.005617
 H        -0.104059        -0.000481        -1.665622
