19
Iteration:  3181charge 0 multiplicity 1
 O         0.153276         0.000983         0.978996
 C        -0.911173         0.509218         0.227482
 C        -2.167859         0.527683         1.075092
 C        -1.526384         1.886481         0.651218
 C        -2.185923         2.826999        -0.283741
 C        -2.186056         2.799683        -1.598914
 C        -2.022691         1.634822        -2.436211
 O        -2.147399         0.371551        -1.853590
 C        -0.894288         0.056175        -1.148138
 H         0.972549         0.554054         0.763217
 H        -3.030837         0.556057         0.385120
 H        -2.290266         0.164288         2.113821
 H        -1.054162         2.520637         1.401579
 H        -2.419474         3.849315         0.084754
 H        -2.408611         3.799737        -2.188876
 H        -2.978813         1.702489        -3.181912
 H        -1.078975         1.543236        -3.049165
 H        -0.933774        -1.031538        -1.155658
 H         0.042418         0.402044        -1.791245
