19
Iteration:  1086
 O         0.187348        -0.073402         1.000996
 C        -0.917311         0.538269         0.260360
 C        -2.062293         0.842611         1.186492
 C        -1.437549         1.964001         0.635493
 C        -2.271895         2.866739        -0.230207
 C        -2.471426         2.767702        -1.524008
 C        -1.826610         1.673902        -2.414414
 O        -2.045773         0.293316        -2.148443
 C        -1.126093        -0.128852        -1.148263
 H         0.936973         0.319391         0.589137
 H        -2.902199         0.431742         0.603365
 H        -1.889307         0.321341         2.146523
 H        -0.673483         2.424119         1.268960
 H        -2.626229         3.715799         0.344208
 H        -3.146204         3.440758        -2.103610
 H        -2.171317         1.778545        -3.518927
 H        -0.763806         1.833503        -2.439029
 H        -1.395341        -1.147274        -1.081903
 H        -0.095757        -0.011001        -1.416588
