19
Iteration:  3241charge 0 multiplicity 1
 O         0.189248         0.045522         1.155938
 C        -0.905467         0.509683         0.383309
 C        -2.277327         0.504105         0.863737
 C        -1.564429         1.788104         0.699890
 C        -1.782923         2.902727        -0.300046
 C        -2.253362         2.807726        -1.552173
 C        -2.405052         1.560272        -2.523570
 O        -2.043855         0.325433        -1.997795
 C        -0.879043         0.208379        -1.168020
 H         1.012914         0.587527         0.849274
 H        -3.048891         0.089349         0.282618
 H        -2.370357         0.217264         1.902463
 H        -1.385900         2.195733         1.743306
 H        -1.550105         3.887593         0.044343
 H        -2.258059         3.740688        -1.944562
 H        -3.346642         1.397416        -3.082844
 H        -1.664232         1.826920        -3.318991
 H        -0.789789        -0.907921        -1.080844
 H         0.070739         0.574906        -1.535853
