19
Iteration:  1639charge 0 multiplicity 1
 O         0.074306        -0.167472         1.090406
 C        -0.848727         0.518570         0.271440
 C        -2.196407         0.646570         0.968923
 C        -1.497404         1.922175         0.643281
 C        -2.042928         2.867702        -0.307645
 C        -2.297102         2.824670        -1.644033
 C        -2.250140         1.553568        -2.439391
 O        -2.060320         0.345417        -1.821425
 C        -0.785038         0.126872        -1.220996
 H         0.906516         0.328490         1.309939
 H        -3.109442         0.557814         0.447162
 H        -2.184998         0.330806         1.994036
 H        -1.170014         2.479335         1.572537
 H        -1.926249         3.910625         0.044362
 H        -2.491023         3.682455        -2.238598
 H        -3.248990         1.299771        -3.050858
 H        -1.468101         1.797771        -3.257674
 H        -0.335541        -0.731223        -1.571544
 H        -0.002308         0.882816        -1.582301
