19
Iteration:   632charge 0 multiplicity 1
 O         0.190880         0.079062         0.993090
 C        -0.993902         0.500768         0.296130
 C        -2.250826         0.605067         1.092466
 C        -1.466212         1.946651         0.677917
 C        -2.025264         2.970303        -0.269692
 C        -2.463476         2.791520        -1.519436
 C        -2.009213         1.679936        -2.396465
 O        -2.056049         0.237860        -2.072111
 C        -0.865587        -0.063392        -1.184608
 H         0.661776        -0.603336         0.569938
 H        -3.220376         0.515339         0.588655
 H        -2.234740         0.353000         2.153818
 H        -0.880924         2.319019         1.472960
 H        -2.100047         3.932624         0.092479
 H        -3.021615         3.541541        -2.041198
 H        -2.633229         1.659116        -3.329609
 H        -0.989189         1.908183        -2.624638
 H        -0.694289        -1.138175        -1.011934
 H         0.031908         0.194173        -1.740613
