19
Iteration:   918charge 0 multiplicity 1
 O         0.107522        -0.067182         0.965642
 C        -0.894800         0.598106         0.269752
 C        -2.314495         0.519908         0.931851
 C        -1.589221         1.921404         0.698053
 C        -1.909783         2.842373        -0.354607
 C        -2.151375         2.774822        -1.644027
 C        -2.355511         1.533028        -2.348783
 O        -2.009682         0.336697        -1.781518
 C        -0.758550         0.215718        -1.232080
 H         0.524659         0.357184         1.727809
 H        -3.108646         0.094718         0.348022
 H        -2.164402         0.119799         1.951672
 H        -1.182716         2.422690         1.648521
 H        -1.771300         3.971991        -0.033410
 H        -2.293818         3.673184        -2.302335
 H        -3.551966         1.488175        -2.546517
 H        -1.814927         1.597347        -3.338122
 H        -0.303979        -0.862730        -1.307529
 H        -0.026929         0.875418        -1.712963
