19
Iteration:  1349
 O         0.243375         0.145725         1.019164
 C        -0.979971         0.502500         0.317751
 C        -2.418717         0.443756         0.901047
 C        -1.638548         1.855687         0.640988
 C        -1.784165         2.963555        -0.309496
 C        -2.014347         2.761144        -1.548780
 C        -2.353801         1.563819        -2.326928
 O        -2.082989         0.231194        -1.905962
 C        -0.876146         0.131236        -1.197002
 H         0.856633         0.927086         0.845393
 H        -3.116701         0.116741         0.133985
 H        -2.463765         0.071304         1.887390
 H        -1.323306         2.365823         1.613573
 H        -1.509180         3.926845         0.209346
 H        -2.082240         3.573569        -2.197642
 H        -3.421603         1.456341        -2.700093
 H        -1.794828         1.898468        -3.159122
 H        -0.603142        -0.933275        -1.273293
 H        -0.132921         0.818532        -1.674469
