19
Iteration:  2391charge 0 multiplicity 1
 O         0.147388        -0.026039         0.945310
 C        -0.929717         0.651653         0.307583
 C        -2.103448         0.501586         1.201229
 C        -1.599023         1.951706         0.735957
 C        -2.167531         2.886805        -0.283301
 C        -2.269717         2.727220        -1.607555
 C        -2.022770         1.609133        -2.570585
 O        -2.040633         0.339328        -1.960374
 C        -0.992378         0.024960        -1.117462
 H         0.977211         0.242545         0.546554
 H        -2.993723         0.335063         0.541667
 H        -2.178458         0.175544         2.264968
 H        -1.018457         2.473648         1.486574
 H        -2.183024         3.999237        -0.023130
 H        -2.388564         3.720288        -2.081217
 H        -2.735602         1.576566        -3.410859
 H        -1.019605         1.776832        -3.149564
 H        -0.878209        -1.061365        -1.097073
 H        -0.096212         0.427738        -1.600455
