19
Iteration:  1271charge 0 multiplicity 1
 O         0.093024        -0.169420         1.207864
 C        -0.891514         0.476757         0.327294
 C        -2.269247         0.699709         0.876866
 C        -1.328201         1.917088         0.580322
 C        -1.974360         2.884740        -0.381279
 C        -2.407459         2.781286        -1.593561
 C        -2.300319         1.606161        -2.381822
 O        -2.007636         0.234882        -1.919813
 C        -0.757782         0.263661        -1.165416
 H         0.941422        -0.303250         0.846985
 H        -3.185636         0.653650         0.296651
 H        -2.550734         0.454006         1.925657
 H        -0.730864         2.350007         1.424821
 H        -2.101403         3.895544         0.073409
 H        -2.965034         3.666673        -2.063639
 H        -3.303813         1.419349        -2.885937
 H        -1.635642         1.988771        -3.177317
 H        -0.434595        -0.795863        -1.325981
 H        -0.064559         0.978173        -1.640967
