19
Iteration:  3406
 O         0.347711         0.132538         0.952113
 C        -1.044689         0.493207         0.312266
 C        -2.301359         0.503987         1.109975
 C        -1.521599         1.827159         0.699015
 C        -2.032446         2.944799        -0.259124
 C        -2.269269         2.734754        -1.606460
 C        -1.929212         1.629336        -2.485527
 O        -2.150146         0.392780        -1.968078
 C        -1.041133        -0.023337        -1.121584
 H         0.942460         0.783872         0.674032
 H        -3.122820         0.205841         0.459687
 H        -2.441962        -0.029617         2.055513
 H        -1.039770         2.080868         1.672360
 H        -2.205575         3.927850         0.178022
 H        -2.662376         3.698968        -2.017568
 H        -2.592644         1.776285        -3.444416
 H        -0.968498         1.743807        -3.030698
 H        -1.126754        -1.129615        -1.161586
 H        -0.081325         0.139704        -1.687404
