19
Iteration:  2756charge 0 multiplicity 1
 O         0.168073         0.133384         0.963727
 C        -1.013605         0.428624         0.325297
 C        -2.193157         0.595042         1.206132
 C        -1.519030         1.848171         0.672987
 C        -2.030170         2.832797        -0.291318
 C        -2.336778         2.735009        -1.637691
 C        -1.945958         1.675432        -2.497884
 O        -2.075482         0.389125        -2.021706
 C        -0.996403        -0.042941        -1.143380
 H         0.813610         0.721242         0.638008
 H        -3.223168         0.281509         0.955215
 H        -1.938435         0.529320         2.243738
 H        -0.863266         2.332753         1.500158
 H        -2.251870         3.758921         0.247419
 H        -2.877053         3.554200        -2.015283
 H        -2.602371         1.736050        -3.392285
 H        -0.925392         1.731427        -2.969590
 H        -0.973222        -1.153939        -1.128813
 H        -0.038296         0.201163        -1.541888
