19
Iteration:  2850
 O         0.133439         0.012410         1.140653
 C        -0.878030         0.523945         0.327946
 C        -2.341397         0.608846         0.947656
 C        -1.473653         1.813747         0.715035
 C        -1.857177         2.846473        -0.295969
 C        -2.189008         2.751593        -1.598239
 C        -2.395636         1.512049        -2.529698
 O        -2.057270         0.265045        -1.956143
 C        -0.767806         0.258418        -1.241185
 H         0.564229         0.697665         1.752618
 H        -3.215374         0.382021         0.237905
 H        -2.478765         0.401172         2.045174
 H        -0.983831         2.246935         1.596676
 H        -1.836684         3.835182         0.196586
 H        -2.452611         3.783679        -2.026753
 H        -3.468253         1.409353        -2.798821
 H        -2.027299         1.850672        -3.555254
 H        -0.400025        -0.763072        -1.387616
 H         0.102207         0.844007        -1.695699
