19
Iteration:  1648
 O         0.052807        -0.159001         1.217511
 C        -0.844669         0.441768         0.293302
 C        -2.198458         0.678882         0.978128
 C        -1.433380         1.911078         0.644836
 C        -2.058666         2.926083        -0.288498
 C        -2.322418         2.765973        -1.624377
 C        -2.335300         1.557396        -2.524075
 O        -2.061113         0.327195        -1.851440
 C        -0.730131         0.195576        -1.306350
 H         0.985020         0.203797         1.238102
 H        -3.057495         0.385058         0.448979
 H        -2.274563         0.240552         1.967416
 H        -0.933411         2.394442         1.530416
 H        -1.757942         3.935141         0.068964
 H        -2.341817         3.713546        -2.239510
 H        -3.302418         1.565202        -3.056643
 H        -1.532622         1.735548        -3.266034
 H        -0.198067        -0.741060        -1.532385
 H        -0.200100         1.063069        -1.858296
