19
Iteration:  4731
 O         0.084279        -0.152713         1.080426
 C        -0.935212         0.459776         0.279946
 C        -2.158211         0.715902         0.988749
 C        -1.343909         1.996376         0.611741
 C        -2.119395         2.923330        -0.275669
 C        -2.533339         2.766293        -1.541772
 C        -2.050374         1.700702        -2.428517
 O        -1.967832         0.328011        -1.960021
 C        -0.856206        -0.039830        -1.206984
 H         0.952802         0.177468         0.929893
 H        -3.023472         0.657236         0.423126
 H        -2.289188         0.383080         1.967264
 H        -0.788991         2.490112         1.356926
 H        -2.802814         3.692604         0.210631
 H        -3.137374         3.541031        -1.960601
 H        -2.780830         1.610414        -3.212576
 H        -1.063103         1.916686        -2.876506
 H        -0.714217        -1.169338        -1.173162
 H        -0.069193         0.537577        -1.497431
