19
Iteration:  3202
 O         0.172150         0.008433         1.046515
 C        -0.929551         0.453331         0.212226
 C        -2.264775         0.553225         1.005128
 C        -1.559291         1.813050         0.637622
 C        -2.059824         2.860704        -0.267794
 C        -2.133860         2.862775        -1.649399
 C        -2.155406         1.565727        -2.525842
 O        -2.103707         0.412731        -1.716791
 C        -0.866942         0.121039        -1.190066
 H         0.856440         0.614274         0.949456
 H        -3.143886         0.123114         0.491843
 H        -2.016909         0.211985         2.018750
 H        -1.062460         2.149181         1.592717
 H        -2.368470         3.746934         0.317564
 H        -2.563371         3.754390        -2.315902
 H        -3.045475         1.507876        -3.239321
 H        -1.251568         1.530192        -3.252514
 H        -0.594609        -0.904052        -1.435095
 H        -0.085794         0.688088        -1.832352
