19
Iteration:  2156charge 0 multiplicity 1
 O         0.061976         0.042351         1.220188
 C        -0.863057         0.499990         0.267530
 C        -2.225597         0.475999         0.908246
 C        -1.458921         1.829393         0.712712
 C        -1.883248         2.849879        -0.342062
 C        -2.149349         2.831950        -1.688511
 C        -2.370375         1.584518        -2.510990
 O        -2.102998         0.328015        -1.864578
 C        -0.829737         0.183890        -1.168850
 H         0.949648         0.415773         0.847721
 H        -3.130564         0.274707         0.370180
 H        -2.044300         0.140650         1.863885
 H        -1.126507         2.328852         1.605429
 H        -2.212209         3.788364         0.061440
 H        -2.437327         3.806772        -2.220129
 H        -3.439952         1.639836        -2.715512
 H        -1.911449         1.646806        -3.513251
 H        -0.417362        -0.869227        -1.200330
 H        -0.024979         0.748700        -1.693266
