19
Iteration:  2835charge 0 multiplicity 1
 O         0.177029         0.035315         1.115356
 C        -0.989995         0.438309         0.328279
 C        -2.304704         0.542841         0.881345
 C        -1.465809         1.861168         0.641220
 C        -1.825602         2.864903        -0.338184
 C        -2.294586         2.756550        -1.594656
 C        -2.325043         1.593277        -2.437072
 O        -2.039374         0.304663        -1.853911
 C        -0.819899         0.181103        -1.198767
 H         0.579071         0.876819         1.311094
 H        -3.046957         0.386903         0.135678
 H        -2.540844         0.159133         1.841938
 H        -1.109280         2.272035         1.551254
 H        -1.771417         3.924880        -0.011952
 H        -2.293282         3.650161        -2.202688
 H        -3.339447         1.444735        -2.932674
 H        -1.538086         1.622785        -3.096671
 H        -0.349251        -0.781434        -1.412882
 H        -0.298047         1.055724        -1.522548
