19
Iteration:   555charge 0 multiplicity 1
 O         0.233480         0.161873         1.007110
 C        -0.922364         0.496653         0.333810
 C        -2.231598         0.233349         0.973361
 C        -1.641127         1.795027         0.607725
 C        -1.804656         2.861543        -0.426380
 C        -2.241604         2.963177        -1.687038
 C        -2.306163         1.603561        -2.477844
 O        -2.075113         0.440107        -1.736183
 C        -0.867229         0.110351        -1.163206
 H        -0.049386         0.000753         1.935432
 H        -3.111323        -0.090716         0.418185
 H        -2.223014         0.189351         2.060787
 H        -1.408317         2.138871         1.613110
 H        -1.682706         3.748637         0.130045
 H        -2.448850         3.872078        -2.279910
 H        -3.187073         1.288090        -3.167610
 H        -1.333441         1.641140        -3.082950
 H        -0.721374        -0.983835        -1.099152
 H        -0.000683         0.727788        -1.567282
