19
Iteration:   479charge 0 multiplicity 1
 O         0.092875        -0.042281         0.896504
 C        -1.027680         0.501176         0.301994
 C        -2.308735         0.691311         1.124056
 C        -1.472604         1.915068         0.698337
 C        -1.886879         2.878503        -0.286301
 C        -2.418776         2.703992        -1.520316
 C        -2.283446         1.525457        -2.410209
 O        -1.828437         0.286464        -2.037236
 C        -0.773033         0.193157        -1.241898
 H         0.118270         0.215333         1.878554
 H        -3.296603         0.477919         0.737240
 H        -2.123505         0.306338         2.131802
 H        -0.980873         2.383221         1.594497
 H        -1.851649         3.892732         0.069395
 H        -2.532353         3.631769        -2.159863
 H        -3.274199         1.407746        -2.939590
 H        -1.704828         1.939307        -3.316079
 H        -0.547837        -0.898820        -1.033499
 H         0.207534         0.744952        -1.487818
