19
Iteration:  3631
 O         0.237971         0.120926         1.150039
 C        -0.942266         0.495980         0.338636
 C        -2.333626         0.415029         0.887759
 C        -1.510472         1.831366         0.751283
 C        -1.795106         2.876696        -0.281560
 C        -2.185712         2.821016        -1.639940
 C        -2.336248         1.561270        -2.517189
 O        -2.105293         0.294685        -1.955774
 C        -0.935697         0.195471        -1.137101
 H         0.775549         0.834832         0.899179
 H        -3.077361         0.202244         0.095223
 H        -2.514982        -0.175231         1.785467
 H        -1.119288         2.184442         1.788196
 H        -1.872730         4.020047         0.016343
 H        -2.028208         3.859781        -2.052183
 H        -3.348294         1.423585        -2.756418
 H        -1.596336         1.697846        -3.445816
 H        -0.636405        -0.837905        -1.350485
 H        -0.049750         0.693978        -1.679209
