19
Iteration:   329charge 0 multiplicity 1
 O         0.342828         0.271719         0.788362
 C        -1.037023         0.467034         0.316905
 C        -2.163831         0.461418         1.243070
 C        -1.659320         1.805915         0.670667
 C        -2.227393         2.855751        -0.237083
 C        -2.110577         2.876740        -1.542336
 C        -1.858805         1.680186        -2.454363
 O        -2.181594         0.294416        -2.026908
 C        -1.038530        -0.080306        -1.211370
 H         0.225827        -0.104586         1.687157
 H        -3.174866         0.185923         0.872307
 H        -2.101742         0.236712         2.306907
 H        -1.062218         2.326795         1.450946
 H        -2.651277         3.736237         0.261603
 H        -2.222085         3.803495        -2.133396
 H        -2.502856         1.854275        -3.302129
 H        -0.780227         1.852812        -2.739291
 H        -0.885498        -1.168007        -1.232110
 H        -0.094667         0.340819        -1.572587
