19
Iteration:  4222
 O         0.283062         0.301253         0.896439
 C        -0.980406         0.538439         0.255222
 C        -2.233319         0.396176         1.112099
 C        -1.621577         1.833212         0.636049
 C        -2.162610         2.840942        -0.236974
 C        -2.145633         2.879775        -1.612324
 C        -1.759434         1.664998        -2.486273
 O        -2.214889         0.373080        -1.852952
 C        -1.112634        -0.163234        -1.081204
 H         0.936554         0.747332         0.340696
 H        -3.084891         0.108724         0.478188
 H        -2.098634         0.021636         2.148456
 H        -1.044055         2.354152         1.440403
 H        -2.434022         3.729851         0.193986
 H        -2.411145         3.778375        -2.186695
 H        -2.355750         1.612968        -3.403463
 H        -0.694724         1.400442        -2.822905
 H        -1.351653        -1.257729        -0.952699
 H        -0.185771        -0.238032        -1.743314
