19
Iteration:  3423charge 0 multiplicity 1
 O         0.198794         0.170823         0.884857
 C        -0.975730         0.446898         0.306005
 C        -2.185955         0.532570         1.151607
 C        -1.584788         1.787225         0.622986
 C        -2.097475         2.801646        -0.254937
 C        -2.261135         2.930496        -1.592461
 C        -1.885059         1.730002        -2.485905
 O        -2.115142         0.335296        -1.914992
 C        -1.051911        -0.139583        -1.129250
 H         0.806723         0.824134         0.568764
 H        -3.185930         0.248378         0.783378
 H        -2.031992         0.556504         2.212766
 H        -1.009384         2.322649         1.414651
 H        -2.323683         3.711222         0.328715
 H        -2.616725         3.755023        -2.125862
 H        -2.329025         1.626313        -3.439584
 H        -0.775492         1.859114        -2.672314
 H        -1.101167        -1.241476        -1.184875
 H        -0.088057         0.086959        -1.599108
