19
Iteration:  1450
 O         0.158404        -0.022529         0.981119
 C        -0.991386         0.519557         0.301169
 C        -2.227798         0.747065         1.107834
 C        -1.328972         1.908054         0.638214
 C        -2.056168         2.889146        -0.256150
 C        -2.500385         2.687543        -1.491720
 C        -1.950926         1.714659        -2.539712
 O        -2.018377         0.313069        -2.081955
 C        -0.998874        -0.075947        -1.058698
 H         0.862970         0.305493         0.474317
 H        -3.157510         0.539686         0.530151
 H        -2.134818         0.455029         2.220984
 H        -0.895868         2.414125         1.466600
 H        -2.290273         3.714739         0.384900
 H        -3.235057         3.461864        -1.907469
 H        -2.492705         1.752533        -3.593410
 H        -0.985516         2.088078        -2.676094
 H        -1.107332        -1.125986        -1.009288
 H         0.034942        -0.019414        -1.469666
