19
Iteration:  4470
 O         0.154483         0.078877         1.139204
 C        -0.921927         0.492553         0.324257
 C        -2.227429         0.414796         0.908818
 C        -1.559263         1.868310         0.717785
 C        -1.906566         2.899014        -0.310177
 C        -2.129361         2.750384        -1.625626
 C        -2.295626         1.624676        -2.489846
 O        -2.096085         0.320526        -1.924920
 C        -0.857931         0.135418        -1.168551
 H         0.813823         0.731496         1.071789
 H        -2.994941         0.234483         0.115934
 H        -2.559462         0.171512         1.947672
 H        -1.261258         2.247139         1.733790
 H        -1.666664         4.009625         0.199317
 H        -2.347856         3.685515        -2.275918
 H        -3.410558         1.610559        -2.760787
 H        -1.754436         1.723640        -3.440871
 H        -0.679428        -0.883857        -1.345407
 H        -0.108394         0.769915        -1.724068
