19
Iteration:  2888charge 0 multiplicity 1
 O         0.051690        -0.106117         0.967200
 C        -0.955356         0.597239         0.304409
 C        -2.328565         0.663856         1.004535
 C        -1.533809         1.861803         0.660314
 C        -1.915067         2.993275        -0.284749
 C        -2.232116         2.761541        -1.535876
 C        -2.410860         1.482270        -2.390292
 O        -1.861325         0.201922        -1.975163
 C        -0.718970         0.249297        -1.170208
 H         0.791755         0.434774         1.243287
 H        -3.107095         0.432916         0.316793
 H        -2.523151         0.509256         2.014224
 H        -1.068196         2.159377         1.651819
 H        -1.674940         4.026923         0.049095
 H        -2.327300         3.549185        -2.236619
 H        -3.516230         1.355279        -2.559161
 H        -2.007942         1.601511        -3.430193
 H        -0.329221        -0.830261        -1.080912
 H         0.041559         0.826242        -1.677320
