19
Iteration:  2661
 O         0.281535         0.133698         0.977126
 C        -1.013168         0.404275         0.300547
 C        -2.187563         0.655396         1.262624
 C        -1.510836         1.855694         0.553017
 C        -2.226300         2.925558        -0.271671
 C        -2.428671         2.793328        -1.557759
 C        -1.769157         1.712896        -2.506224
 O        -2.111723         0.383856        -2.017962
 C        -1.011770        -0.174978        -1.115710
 H         0.868469        -0.118782         0.229891
 H        -3.153121         0.403046         0.931837
 H        -1.970352         0.623805         2.263240
 H        -0.705440         2.119522         1.156955
 H        -2.651642         3.694285         0.340073
 H        -2.823225         3.580727        -2.143686
 H        -2.321269         1.693312        -3.465081
 H        -0.794588         1.781603        -2.749701
 H        -1.116647        -1.227473        -1.124560
 H        -0.098465         0.029227        -1.539996
