19
Iteration:  1497charge 0 multiplicity 1
 O         0.076735         0.050171         0.920963
 C        -0.980037         0.532919         0.183623
 C        -2.119162         0.641532         1.165713
 C        -1.353675         1.904896         0.591221
 C        -2.220438         2.862637        -0.257146
 C        -2.453396         2.769783        -1.569373
 C        -1.761314         1.692077        -2.421791
 O        -2.062032         0.353870        -1.942791
 C        -1.053143        -0.136000        -1.119545
 H         0.933622         0.363998         0.520557
 H        -3.185459         0.567350         0.930537
 H        -1.821787         0.389335         2.162626
 H        -0.600446         2.399305         1.275043
 H        -2.698814         3.747739         0.200063
 H        -3.119620         3.642647        -1.950882
 H        -2.193237         1.906057        -3.455212
 H        -0.714421         1.765407        -2.476532
 H        -1.295715        -1.221982        -0.932369
 H        -0.066594        -0.318833        -1.578859
