19
Iteration:  2513charge 0 multiplicity 1
 O         0.110750        -0.008825         1.034024
 C        -1.007291         0.533914         0.275851
 C        -2.366460         0.597784         1.042708
 C        -1.508048         1.867258         0.739355
 C        -1.793379         2.883990        -0.297939
 C        -2.216787         2.716485        -1.607648
 C        -2.367594         1.498531        -2.531333
 O        -2.017863         0.232050        -1.873478
 C        -0.715372         0.326144        -1.180047
 H         0.980081         0.313976         0.582337
 H        -3.256330         0.546975         0.420269
 H        -2.331706         0.154295         2.018213
 H        -1.079436         2.389720         1.624401
 H        -1.971443         3.828177         0.163209
 H        -2.461472         3.606116        -2.225401
 H        -3.349324         1.285980        -2.982322
 H        -1.714192         1.625379        -3.341897
 H        -0.232995        -0.622384        -1.411788
 H        -0.184352         1.120913        -1.476929
