19
Iteration:   469
 O         0.164602        -0.068385         0.959222
 C        -1.043626         0.488904         0.296992
 C        -2.352805         0.771843         1.109726
 C        -1.388891         1.831386         0.678411
 C        -1.964536         2.857661        -0.281360
 C        -2.455630         2.734183        -1.515861
 C        -2.308855         1.626458        -2.505114
 O        -1.861808         0.268198        -2.078686
 C        -0.710242         0.116313        -1.118428
 H         0.255447         0.261451         1.927713
 H        -3.324730         0.697923         0.626975
 H        -2.358075         0.502942         2.176287
 H        -0.729850         2.319628         1.419129
 H        -1.921389         3.816375         0.174114
 H        -2.708625         3.660938        -2.095752
 H        -3.319808         1.397116        -2.878944
 H        -1.640692         1.988843        -3.291467
 H        -0.241055        -0.900197        -1.335702
 H         0.030569         0.844294        -1.569849
