19
Iteration:  1141charge 0 multiplicity 1
 O         0.334205         0.235625         0.869277
 C        -1.012122         0.522356         0.279595
 C        -2.156194         0.520884         1.197617
 C        -1.580485         1.850517         0.604863
 C        -2.258454         2.838970        -0.290142
 C        -2.220835         2.873705        -1.611272
 C        -1.747854         1.702931        -2.389922
 O        -2.184551         0.344755        -1.911791
 C        -1.188239        -0.220501        -1.136199
 H         1.002060         0.092002         0.149221
 H        -3.186553         0.116162         0.935977
 H        -2.037082         0.685681         2.267543
 H        -0.814608         2.157893         1.366086
 H        -2.611265         3.795913         0.184245
 H        -2.332607         3.758710        -2.294953
 H        -2.034856         1.757465        -3.517749
 H        -0.659376         1.716447        -2.362296
 H        -1.455175        -1.251500        -1.038409
 H        -0.117648        -0.254070        -1.641514
