19
Iteration:  1521
 O         0.349454        -0.040568         0.861000
 C        -0.933365         0.421663         0.400658
 C        -2.211882         0.696918         1.177710
 C        -1.503229         1.880056         0.618397
 C        -2.245206         2.858153        -0.316752
 C        -2.351144         2.783060        -1.675719
 C        -1.757830         1.694854        -2.468995
 O        -2.179915         0.452039        -1.930864
 C        -1.118418        -0.074864        -1.059740
 H         0.968705         0.469190         0.389175
 H        -3.020941         0.171507         0.753403
 H        -2.154521         0.563577         2.245549
 H        -1.022611         2.401145         1.509102
 H        -2.794347         3.725262         0.092626
 H        -2.975045         3.518171        -2.141010
 H        -2.097826         1.879713        -3.442920
 H        -0.668331         1.679056        -2.497026
 H        -1.161517        -1.233057        -1.095183
 H        -0.150001         0.043911        -1.581899
