19
Iteration:  3353
 O         0.058729        -0.058731         1.149504
 C        -0.955754         0.438218         0.238926
 C        -2.201718         0.506770         0.931185
 C        -1.508883         1.888871         0.612190
 C        -1.949835         2.999565        -0.258457
 C        -2.276718         2.847738        -1.586481
 C        -2.300865         1.545653        -2.510979
 O        -1.993842         0.308544        -1.840589
 C        -0.732556         0.176638        -1.214479
 H         0.871331         0.306365         0.960419
 H        -3.227806         0.559950         0.514771
 H        -2.251540         0.365776         2.035540
 H        -0.878937         2.020692         1.518886
 H        -2.048872         4.038036         0.162267
 H        -2.718105         3.858644        -2.029587
 H        -3.333914         1.269148        -2.817508
 H        -1.640475         1.627441        -3.404705
 H        -0.488284        -0.859666        -1.511044
 H        -0.019258         0.886830        -1.684794
