19
Iteration:  4013
 O         0.264407         0.156640         1.073989
 C        -0.895313         0.548772         0.337685
 C        -2.277725         0.404988         0.974774
 C        -1.727345         1.788953         0.779157
 C        -1.892792         2.817826        -0.282256
 C        -2.014107         2.752945        -1.665972
 C        -2.212815         1.614736        -2.571966
 O        -2.179610         0.374211        -1.891591
 C        -0.936037         0.097812        -1.170152
 H         1.050458         0.640443         0.782363
 H        -3.103898         0.175703         0.325501
 H        -2.457221         0.099532         1.995425
 H        -1.453265         2.297612         1.716524
 H        -1.869130         3.871811         0.147506
 H        -2.293572         3.645422        -2.103433
 H        -3.242124         1.791041        -2.955965
 H        -1.494230         1.875532        -3.452939
 H        -0.670267        -0.930465        -1.273098
 H        -0.163471         0.642951        -1.685849
