19
Iteration:  1484charge 0 multiplicity 1
 O         0.084364         0.071113         1.032584
 C        -0.982877         0.534568         0.157212
 C        -2.086082         0.793046         1.114763
 C        -1.388342         1.953481         0.562910
 C        -2.208629         2.865226        -0.128201
 C        -2.426635         2.679734        -1.475811
 C        -1.833796         1.702581        -2.399220
 O        -2.046106         0.333991        -2.078316
 C        -1.045415        -0.245715        -1.203189
 H         0.929177         0.225431         0.619161
 H        -3.143559         0.546701         0.826774
 H        -1.850978         0.376075         2.144786
 H        -0.710693         2.400837         1.285597
 H        -2.479785         3.750718         0.440713
 H        -2.912216         3.494266        -2.164180
 H        -2.299190         1.689936        -3.490667
 H        -0.816329         1.970577        -2.521845
 H        -1.404361        -1.229295        -0.990629
 H        -0.083684        -0.180731        -1.739752
