19
Iteration:  4737
 O         0.067197        -0.140047         1.093420
 C        -0.932695         0.420216         0.272967
 C        -2.172099         0.770299         0.964534
 C        -1.351977         1.938526         0.608914
 C        -2.113032         2.933616        -0.254834
 C        -2.530867         2.750029        -1.514488
 C        -2.063224         1.662364        -2.455133
 O        -1.949193         0.334541        -1.985323
 C        -0.858458         0.016864        -1.164562
 H         0.892557         0.256408         0.772604
 H        -3.161489         0.546912         0.391712
 H        -2.116884         0.457214         2.076854
 H        -0.761751         2.502524         1.416594
 H        -2.493552         3.749424         0.324777
 H        -3.260246         3.508074        -1.985525
 H        -2.915231         1.483545        -3.202669
 H        -1.080993         2.049312        -2.934889
 H        -0.805573        -1.069862        -1.263327
 H         0.268405         0.413667        -1.589509
