19
Iteration:   953
 O         0.311633         0.115197         1.071813
 C        -0.927035         0.479814         0.420249
 C        -2.355426         0.405701         0.938010
 C        -1.546110         1.788447         0.710190
 C        -1.790017         2.811756        -0.356526
 C        -2.072601         2.762931        -1.682424
 C        -2.334065         1.599136        -2.490851
 O        -2.203779         0.320073        -1.854306
 C        -0.937941         0.255673        -1.194762
 H         0.602432         0.899779         1.562404
 H        -2.997868        -0.047696         0.152951
 H        -2.538329         0.019960         1.923491
 H        -1.255805         2.338510         1.586254
 H        -1.686181         3.865497         0.052756
 H        -2.121409         3.696318        -2.172687
 H        -3.444163         1.670578        -2.907080
 H        -1.696306         1.693282        -3.407410
 H        -0.426930        -0.625087        -1.610308
 H        -0.414019         1.192997        -1.557856
