19
Iteration:  3722charge 0 multiplicity 1
 O         0.011689        -0.053760         1.153368
 C        -0.960512         0.477278         0.296360
 C        -2.346133         0.638132         0.855289
 C        -1.357551         1.891365         0.677152
 C        -1.838639         2.912943        -0.333659
 C        -2.450178         2.743477        -1.476468
 C        -2.404400         1.524742        -2.479791
 O        -1.920299         0.285674        -1.942933
 C        -0.649586         0.238608        -1.174402
 H         0.978840         0.082995         0.989807
 H        -3.146301         0.687634         0.136462
 H        -2.444688         0.304723         1.893066
 H        -0.852148         2.293018         1.585125
 H        -1.700175         3.889020         0.007596
 H        -2.856135         3.510096        -2.109755
 H        -3.371000         1.268372        -2.841994
 H        -1.641161         1.853128        -3.328695
 H        -0.272596        -0.835865        -1.399297
 H         0.110102         1.029057        -1.442936
