19
Iteration:  2523
 O         0.113710        -0.021123         1.113207
 C        -0.971438         0.545019         0.324661
 C        -2.294466         0.520204         0.969642
 C        -1.500168         1.904333         0.732942
 C        -1.831654         2.935509        -0.335409
 C        -2.226487         2.719571        -1.610716
 C        -2.342026         1.526663        -2.538712
 O        -2.004605         0.223200        -1.883724
 C        -0.832207         0.305474        -1.206007
 H         0.922650         0.169163         0.569759
 H        -3.270680         0.326627         0.555982
 H        -2.157277         0.287366         1.982580
 H        -1.061629         2.213484         1.672315
 H        -1.913030         3.963238        -0.038296
 H        -2.552425         3.655526        -2.087684
 H        -3.368663         1.483582        -2.864475
 H        -1.715959         1.682026        -3.346924
 H        -0.255730        -0.615584        -1.271450
 H        -0.205639         1.030158        -1.650191
