19
Iteration:  4411charge 0 multiplicity 1
 O         0.219978         0.068026         1.004426
 C        -0.975942         0.546344         0.361412
 C        -2.270446         0.378746         1.014074
 C        -1.647287         1.805378         0.746518
 C        -1.978985         2.881798        -0.306364
 C        -2.036321         2.879107        -1.685242
 C        -2.231765         1.588637        -2.594015
 O        -2.106880         0.329784        -1.863518
 C        -0.884943         0.162544        -1.107963
 H         0.959051         0.716044         0.765406
 H        -3.109776         0.201879         0.362320
 H        -2.276222        -0.002722         2.007540
 H        -1.245130         2.235690         1.620719
 H        -2.194532         3.858011         0.194122
 H        -2.014573         3.720515        -2.256877
 H        -3.272989         1.716488        -2.935122
 H        -1.559059         1.640697        -3.439695
 H        -0.617648        -0.987242        -0.866004
 H         0.013742         0.541930        -1.621319
