19
Iteration:  4439
 O         0.227850         0.193149         1.054479
 C        -0.993829         0.477808         0.272841
 C        -2.327074         0.400350         0.858644
 C        -1.720551         1.743908         0.645671
 C        -1.858496         2.844839        -0.286871
 C        -2.067630         2.778527        -1.619275
 C        -2.183521         1.581642        -2.429573
 O        -2.184128         0.331872        -1.732394
 C        -0.809253         0.171822        -1.167433
 H         1.030841         0.666983         0.547969
 H        -3.250902         0.193281         0.314363
 H        -2.355769         0.305627         1.959413
 H        -1.467299         2.188294         1.673296
 H        -1.545226         3.849786         0.184321
 H        -2.054886         3.732300        -2.357478
 H        -3.140808         1.887818        -2.963677
 H        -1.640446         1.687850        -3.420342
 H        -0.428119        -0.792915        -1.301126
 H        -0.141816         0.806457        -1.841513
