19
Iteration:  3318charge 0 multiplicity 1
 O         0.077108        -0.179713         1.180355
 C        -0.877080         0.541852         0.308591
 C        -2.247735         0.588790         0.831210
 C        -1.458197         1.896564         0.760398
 C        -1.807926         2.852164        -0.334373
 C        -2.361357         2.726641        -1.539517
 C        -2.446189         1.489404        -2.539309
 O        -1.979490         0.344017        -1.937751
 C        -0.782778         0.373318        -1.177085
 H         0.881629         0.262797         1.072519
 H        -3.047069         0.691534         0.083252
 H        -2.540638         0.412752         1.818039
 H        -1.099454         2.387262         1.781846
 H        -1.594971         3.877733        -0.021815
 H        -2.528508         3.661834        -2.041733
 H        -3.524917         1.271612        -2.986816
 H        -1.938121         1.778318        -3.482171
 H        -0.334317        -0.675867        -1.147336
 H         0.125544         0.984663        -1.446842
