19
Iteration:  1696charge 0 multiplicity 1
 O         0.117181        -0.064197         1.064646
 C        -0.986993         0.504172         0.267238
 C        -2.316812         0.643043         0.859968
 C        -1.546092         1.940116         0.758382
 C        -1.821130         2.968378        -0.288140
 C        -2.283861         2.769877        -1.524652
 C        -2.453975         1.454116        -2.391238
 O        -1.910892         0.267101        -1.973215
 C        -0.718982         0.188033        -1.170250
 H         0.998483         0.283098         0.705292
 H        -3.259060         0.727365         0.231454
 H        -2.678849         0.380630         1.877461
 H        -0.972026         2.192623         1.627379
 H        -1.594604         3.922064         0.157373
 H        -2.228973         3.559205        -2.209859
 H        -3.600259         1.221991        -2.651583
 H        -1.974608         1.842942        -3.353858
 H        -0.482605        -0.872874        -1.167286
 H         0.213416         0.794792        -1.587624
