19
Iteration:  4972
 O         0.106914        -0.010842         1.188409
 C        -0.837909         0.432862         0.240850
 C        -2.180982         0.628842         1.026510
 C        -1.419144         1.854046         0.551007
 C        -2.176378         2.834477        -0.258042
 C        -2.388873         2.913693        -1.567018
 C        -2.028627         1.747283        -2.532333
 O        -2.067916         0.351126        -1.946628
 C        -0.872558        -0.043098        -1.180384
 H         0.969906         0.096719         0.816168
 H        -3.110999         0.298295         0.535272
 H        -2.087434         0.301143         2.092121
 H        -0.953895         2.409998         1.442831
 H        -2.574086         3.671916         0.339564
 H        -3.051987         3.634471        -1.912176
 H        -2.975176         1.652706        -3.200700
 H        -1.023155         1.899784        -3.145494
 H        -0.854293        -1.208571        -1.188829
 H         0.075752         0.301896        -1.787313
