19
Iteration:  3922
 O         0.024573        -0.066382         1.042570
 C        -0.915209         0.541426         0.260247
 C        -2.068272         0.781805         1.149372
 C        -1.329415         1.977847         0.656458
 C        -2.217058         2.859728        -0.245724
 C        -2.531514         2.710978        -1.552789
 C        -1.871082         1.765785        -2.492907
 O        -1.948185         0.356907        -2.074618
 C        -1.012470        -0.142263        -1.177389
 H         0.945831        -0.002942         0.590205
 H        -3.056288         0.582346         0.698951
 H        -1.904859         0.332303         2.134142
 H        -0.676454         2.392549         1.421020
 H        -2.969136         3.506947         0.427342
 H        -3.513950         3.162126        -1.934722
 H        -2.366559         1.748633        -3.493569
 H        -0.757403         1.971903        -2.709944
 H        -1.443001        -1.199393        -0.986981
 H         0.046131        -0.162012        -1.581977
