19
Iteration:  3419
 O         0.237027         0.163368         0.897107
 C        -0.972543         0.422557         0.312354
 C        -2.235774         0.505142         1.131921
 C        -1.589839         1.828988         0.655565
 C        -2.039837         2.824412        -0.278054
 C        -2.272671         2.874963        -1.563280
 C        -1.911170         1.730762        -2.509728
 O        -2.133466         0.348784        -1.932123
 C        -1.034290        -0.136234        -1.122198
 H         0.826460         0.913317         0.529189
 H        -3.202031         0.263898         0.686955
 H        -2.081892         0.506693         2.239347
 H        -0.997638         2.349203         1.361999
 H        -2.412627         3.744376         0.254437
 H        -2.539703         3.815975        -2.164500
 H        -2.432169         1.727567        -3.478427
 H        -0.823169         1.808141        -2.562870
 H        -1.083351        -1.229624        -1.052686
 H        -0.056959         0.214229        -1.551158
