19
Iteration:  4940
 O        -0.001140        -0.092118         1.088282
 C        -0.898874         0.448185         0.268370
 C        -2.190895         0.692439         0.999725
 C        -1.324501         1.882602         0.588615
 C        -2.037532         2.895361        -0.217309
 C        -2.516247         2.712703        -1.502956
 C        -2.107969         1.695583        -2.583728
 O        -2.006834         0.344216        -1.931538
 C        -0.791918         0.071632        -1.152407
 H         0.858002         0.482048         1.014850
 H        -3.128068         0.435508         0.464975
 H        -2.194699         0.344702         2.065376
 H        -0.846296         2.415937         1.490026
 H        -2.250818         3.842701         0.295546
 H        -3.005512         3.518388        -1.907022
 H        -2.820327         1.527199        -3.429533
 H        -1.153604         1.910103        -3.205324
 H        -0.672559        -1.046081        -1.185685
 H        -0.061233         0.665407        -1.688549
