19
Iteration:   819charge 0 multiplicity 1
 O         0.304835        -0.082831         1.071056
 C        -0.879993         0.526685         0.301049
 C        -2.295952         0.691077         1.019753
 C        -1.519928         1.933946         0.646064
 C        -2.124736         2.826013        -0.301253
 C        -2.249523         2.796554        -1.596514
 C        -2.112942         1.605667        -2.544378
 O        -2.098357         0.356043        -1.889795
 C        -0.930228         0.070339        -1.109103
 H         0.971549        -0.177439         0.425989
 H        -3.037167         0.191613         0.390481
 H        -2.331347         0.505533         2.080783
 H        -1.025037         2.471936         1.483613
 H        -2.594040         3.720646         0.188926
 H        -2.629926         3.645735        -2.207366
 H        -3.120757         1.469616        -3.093502
 H        -1.275365         1.881451        -3.180775
 H        -0.704954        -1.053443        -1.171596
 H        -0.008321         0.488142        -1.573452
