19
Iteration:  2892charge 0 multiplicity 1
 O         0.082484        -0.123094         0.980967
 C        -0.963131         0.586255         0.284847
 C        -2.352997         0.682778         0.981510
 C        -1.529811         1.864818         0.668196
 C        -1.901207         2.996949        -0.279841
 C        -2.244759         2.746458        -1.539652
 C        -2.406337         1.490273        -2.386329
 O        -1.853784         0.184921        -1.956008
 C        -0.723694         0.233583        -1.162101
 H         0.810658         0.552442         1.077372
 H        -3.253074         0.531807         0.285369
 H        -2.525524         0.484565         2.087849
 H        -1.233685         2.181468         1.618954
 H        -1.630996         4.033869         0.055786
 H        -2.465825         3.640604        -2.250546
 H        -3.569258         1.539765        -2.649228
 H        -2.051626         1.639265        -3.391964
 H        -0.227121        -0.723965        -1.193878
 H         0.141203         0.822021        -1.615048
