19
Iteration:  3120
 O         0.152560         0.074586         0.931785
 C        -1.050713         0.501897         0.228358
 C        -2.151023         0.708475         1.151855
 C        -1.388725         1.928061         0.573700
 C        -2.208910         2.867429        -0.148168
 C        -2.420513         2.807862        -1.505114
 C        -1.822465         1.735339        -2.489437
 O        -2.043385         0.270500        -2.057752
 C        -1.004909        -0.219455        -1.139084
 H         0.915759         0.441348         0.492088
 H        -3.245960         0.752268         0.883578
 H        -1.953888         0.424742         2.195182
 H        -0.796658         2.313169         1.376470
 H        -2.641758         3.593415         0.611336
 H        -2.996624         3.599025        -1.935608
 H        -2.347050         1.814948        -3.395471
 H        -0.705525         1.928324        -2.631227
 H        -1.250748        -1.308888        -0.890826
 H         0.024603        -0.117502        -1.542089
