19
Iteration:  1576charge 0 multiplicity 1
 O         0.207192         0.265585         1.011930
 C        -0.979010         0.535971         0.220538
 C        -2.239634         0.507699         1.179475
 C        -1.530631         1.776631         0.615402
 C        -2.054782         2.943052        -0.237529
 C        -2.147961         2.850740        -1.544177
 C        -1.974315         1.601686        -2.492594
 O        -2.186775         0.320285        -1.969707
 C        -1.033958        -0.181544        -1.213315
 H         0.927991         0.731097         0.588874
 H        -3.192668         0.189875         0.792361
 H        -2.052748         0.162181         2.205341
 H        -0.912554         2.207915         1.448762
 H        -2.157322         3.896788         0.281550
 H        -2.349858         3.783062        -1.975817
 H        -2.623653         1.808999        -3.346705
 H        -0.961598         1.570263        -2.842211
 H        -1.115506        -1.367440        -1.121794
 H        -0.187351         0.155773        -1.817033
