19
Iteration:   455charge 0 multiplicity 1
 O         0.184821        -0.101449         1.069354
 C        -0.944048         0.377853         0.387867
 C        -2.287811         0.742660         1.043525
 C        -1.320673         1.906193         0.618508
 C        -2.027976         2.875654        -0.254573
 C        -2.398769         2.793455        -1.527036
 C        -2.310356         1.598344        -2.561526
 O        -1.919664         0.280872        -2.067964
 C        -0.795902         0.149065        -1.193817
 H         0.230890         0.407814         1.855325
 H        -3.126827         0.856115         0.354752
 H        -2.592896         0.515797         2.048556
 H        -0.624993         2.341963         1.428253
 H        -2.436597         3.779753         0.293120
 H        -3.284807         3.527790        -1.701869
 H        -3.259079         1.476700        -3.219558
 H        -1.573874         1.909372        -3.430769
 H        -0.482159        -0.913931        -1.265114
 H         0.132643         0.815254        -1.324233
