19
Iteration:   316
 O         0.354152         0.164179         0.737194
 C        -0.981501         0.410103         0.247284
 C        -2.248784         0.569861         1.111886
 C        -1.625625         1.867651         0.705340
 C        -2.335758         2.822415        -0.209578
 C        -2.192128         2.797209        -1.539728
 C        -1.853486         1.684156        -2.442933
 O        -2.090358         0.417850        -1.886130
 C        -0.995224        -0.101060        -1.150742
 H         0.458746         0.189878         1.721918
 H        -3.167981         0.354287         0.540998
 H        -2.228573         0.276299         2.170620
 H        -0.823667         2.357993         1.374805
 H        -2.574056         3.816551         0.219462
 H        -2.591637         3.730865        -2.086050
 H        -2.332611         1.753728        -3.438175
 H        -0.755124         1.625844        -2.751363
 H        -1.155072        -1.212019        -1.161927
 H        -0.074768         0.114190        -1.651128
