19
Iteration:   310charge 0 multiplicity 1
 O         0.330830         0.114203         0.712144
 C        -0.932481         0.478903         0.264245
 C        -2.262429         0.597604         1.066508
 C        -1.585428         1.855987         0.673622
 C        -2.297758         2.811705        -0.205055
 C        -2.292462         2.819203        -1.534469
 C        -1.800014         1.667687        -2.453477
 O        -2.063365         0.452698        -1.832288
 C        -1.022947        -0.115641        -1.121848
 H         0.313749         0.325228         1.706956
 H        -3.160119         0.282773         0.532686
 H        -2.334316         0.168847         2.067955
 H        -0.969915         2.298617         1.392732
 H        -2.642097         3.697274         0.321063
 H        -2.717583         3.590961        -2.079386
 H        -2.341554         1.598458        -3.418645
 H        -0.800908         1.790986        -2.886207
 H        -1.143257        -1.193072        -1.152435
 H         0.028404        -0.088225        -1.621209
