19
Iteration:  4704
 O         0.127753        -0.041183         1.012152
 C        -0.914561         0.526556         0.235111
 C        -2.139272         0.656043         0.964381
 C        -1.460746         1.892318         0.664310
 C        -2.148021         2.835098        -0.255678
 C        -2.415669         2.756642        -1.553318
 C        -1.899315         1.649124        -2.462395
 O        -2.093647         0.388329        -1.895616
 C        -0.971533         0.015095        -1.179811
 H         0.976695         0.302654         0.850908
 H        -3.172270         0.313408         0.609900
 H        -1.878095         0.322837         2.028609
 H        -0.959383         2.458151         1.519808
 H        -2.602991         3.669668         0.168346
 H        -2.996335         3.603468        -2.007958
 H        -2.498489         1.601919        -3.443146
 H        -0.747204         1.734527        -2.789173
 H        -1.067072        -1.013517        -0.893783
 H        -0.030567         0.399915        -1.637050
