19
Iteration:   338charge 0 multiplicity 1
 O         0.274742         0.327422         0.821578
 C        -0.984453         0.525675         0.271167
 C        -2.187663         0.412111         1.314436
 C        -1.666345         1.757024         0.662603
 C        -2.144387         2.852967        -0.198764
 C        -2.108370         2.886509        -1.575523
 C        -1.876391         1.682158        -2.484172
 O        -2.148341         0.295215        -2.077312
 C        -1.085970        -0.050171        -1.162862
 H         0.169183        -0.315723         1.544321
 H        -3.070355        -0.174683         0.971359
 H        -1.846325         0.264693         2.349876
 H        -1.092596         2.270308         1.537057
 H        -2.471795         3.722854         0.406792
 H        -2.292519         3.877537        -2.157464
 H        -2.536473         1.765852        -3.363882
 H        -0.888274         1.577466        -3.068945
 H        -0.947423        -1.166624        -1.206776
 H        -0.219403         0.351436        -1.633362
