19
Iteration:  4689charge 0 multiplicity 1
 O         0.185003         0.084370         0.963668
 C        -0.963054         0.525097         0.290819
 C        -2.206364         0.501596         1.127323
 C        -1.497757         1.882246         0.672772
 C        -2.123127         2.869396        -0.264291
 C        -2.307289         2.759035        -1.594929
 C        -1.913195         1.709827        -2.524689
 O        -2.089553         0.408696        -1.920573
 C        -0.992223        -0.110118        -1.142073
 H         0.958663         0.551445         0.443957
 H        -3.049340         0.349443         0.531180
 H        -2.252940         0.213954         2.139950
 H        -0.980046         2.360384         1.471091
 H        -2.523175         3.818208         0.286558
 H        -2.806941         3.541897        -2.088465
 H        -2.566723         1.712406        -3.351303
 H        -0.893582         1.902110        -2.779527
 H        -1.190896        -1.217035        -1.172460
 H        -0.002293         0.153306        -1.723976
