19
Iteration:  3009
 O         0.251482         0.135246         0.939522
 C        -1.029888         0.533536         0.255305
 C        -2.245273         0.486477         1.071196
 C        -1.507830         1.909888         0.724037
 C        -2.058716         2.939025        -0.210884
 C        -2.205326         2.737582        -1.530605
 C        -1.927744         1.637086        -2.544208
 O        -2.221174         0.281643        -1.962949
 C        -0.986970        -0.013211        -1.135283
 H         0.843298         0.942598         0.704164
 H        -3.162849         0.112646         0.571135
 H        -2.096437         0.308618         2.190653
 H        -0.984134         2.252850         1.569593
 H        -2.219488         4.034710         0.169815
 H        -2.691461         3.534827        -2.196518
 H        -2.501916         1.708529        -3.371611
 H        -0.923200         1.678486        -3.030829
 H        -1.048512        -1.141711        -1.042097
 H         0.019771         0.051929        -1.521458
