19
Iteration:   965
 C        -3.752259         1.017378        -1.255822
 C        -2.583960         0.096297        -1.447146
 C        -2.406012        -1.069578        -2.282260
 C        -1.966918        -1.192567        -0.804578
 C        -0.413353        -1.066501        -0.659228
 C        -0.339682        -0.081545         0.406104
 O         0.028806        -0.290067         1.544051
 C        -0.921648         1.232697        -0.210820
 O        -1.358901         0.972550        -1.513668
 H        -3.928043         1.746436        -2.064634
 H        -4.676675         0.417081        -1.186094
 H        -3.739548         1.512665        -0.310111
 H        -3.354271        -1.691926        -2.535299
 H        -1.701429        -1.147989        -3.111066
 H        -2.570080        -1.826126        -0.161991
 H        -0.045622        -2.145397        -0.493833
 H        -0.101115        -0.603636        -1.645174
 H        -1.646182         1.511953         0.571490
 H        -0.168883         2.091238        -0.336621
