19
Iteration:  4630
 C        -3.890947         0.616506        -1.687193
 C        -2.483188         0.215119        -1.431432
 C        -1.861793        -0.460943        -2.593953
 C        -2.162337        -1.233450        -1.154304
 C        -1.256828        -1.291960        -0.010043
 C        -0.278809        -0.236209         0.355789
 O         0.583594        -0.376730         1.222208
 C        -0.432782         1.141198        -0.446693
 O        -1.906206         1.258704        -0.544749
 H        -4.496113        -0.187453        -2.125229
 H        -4.382306         0.996924        -0.712489
 H        -4.086496         1.409846        -2.388201
 H        -2.661792        -0.641024        -3.453983
 H        -0.867751        -0.464122        -3.032363
 H        -3.117672        -1.777656        -1.202642
 H        -1.927636        -1.266330         0.855986
 H        -0.924043        -2.260030         0.088290
 H        -0.009777         1.943165         0.270390
 H         0.218650         1.159823        -1.335346
