19
Iteration:    95
 C        -3.787530         0.674631        -0.794698
 C        -2.498542         0.020842        -1.316584
 C        -2.337734        -1.072976        -2.371123
 C        -1.920159        -1.270077        -0.902033
 C        -0.395481        -1.358398        -0.406329
 C        -0.394597        -0.006624         0.298822
 O        -0.319390         0.219558         1.489809
 C        -0.500926         1.225691        -0.694594
 O        -1.600997         1.121972        -1.580161
 H        -4.728529         0.047241        -0.965060
 H        -3.644694         1.040003         0.273582
 H        -3.845248         1.599726        -1.362375
 H        -3.000830        -1.681178        -2.977736
 H        -1.486720        -0.788734        -2.948855
 H        -2.603216        -1.902480        -0.186239
 H        -0.216803        -2.117939         0.405860
 H         0.380248        -1.484108        -1.188132
 H        -0.475114         2.080769         0.053382
 H         0.518706         1.226153        -1.262180
