19
Iteration:  1711charge 0 multiplicity 1
 C        -4.009351         0.724890        -1.444051
 C        -2.551643         0.182585        -1.443641
 C        -1.777972        -0.756265        -2.478386
 C        -2.133102        -1.182838        -1.067107
 C        -1.205885        -1.234691         0.122493
 C        -0.340481        -0.116972         0.427893
 O         0.748066        -0.355014         0.903965
 C        -0.909532         1.244828        -0.015450
 O        -1.594463         1.150934        -1.240174
 H        -4.368811         1.217741        -2.345198
 H        -4.734707        -0.069068        -1.322318
 H        -4.008845         1.493027        -0.732386
 H        -2.332761        -1.265600        -3.247376
 H        -0.835905        -0.284759        -2.764314
 H        -2.804339        -2.064271        -1.133681
 H        -1.918921        -1.364530         0.974432
 H        -0.617646        -2.215609         0.133433
 H        -1.433854         1.624327         0.909903
 H        -0.070016         1.881902        -0.162961
