19
Iteration:   772charge 0 multiplicity 1
 C        -3.916127         0.645252        -1.359596
 C        -2.506016         0.085620        -1.440154
 C        -2.398919        -1.060566        -2.463984
 C        -2.029269        -1.234439        -0.972329
 C        -0.480252        -1.285601        -0.405819
 C        -0.274697        -0.038127         0.419393
 O         0.243652        -0.134566         1.524863
 C        -0.633187         1.343700        -0.266404
 O        -1.688409         1.282789        -1.278997
 H        -4.065799         1.303968        -2.233631
 H        -4.717680        -0.142299        -1.420132
 H        -4.141367         1.306444        -0.380062
 H        -3.425869        -1.461052        -2.659461
 H        -1.777821        -0.943069        -3.434893
 H        -2.577826        -1.988212        -0.388345
 H        -0.553246        -2.153747         0.296043
 H         0.069684        -1.471473        -1.278015
 H        -0.893633         2.124368         0.531983
 H         0.239608         1.620318        -0.925285
