19
Iteration:   572
 C        -3.988967         0.680629        -1.997300
 C        -2.682276         0.102467        -1.473686
 C        -1.626153        -0.795794        -2.149505
 C        -2.234137        -1.245327        -0.775912
 C        -1.150529        -1.353301         0.237181
 C        -0.221109        -0.142391         0.310616
 O         0.993026        -0.209041         0.580499
 C        -0.856689         1.256938        -0.097411
 O        -2.049583         1.265863        -0.810842
 H        -3.911374         1.292570        -2.990329
 H        -4.898012         0.042271        -2.158438
 H        -4.378874         1.382855        -1.262047
 H        -1.759495        -1.322960        -3.030403
 H        -0.695648        -0.246726        -2.100325
 H        -2.948485        -2.039925        -0.915356
 H        -1.480078        -1.561612         1.351080
 H        -0.498439        -2.157182         0.059669
 H        -1.113653         1.793365         0.849427
 H        -0.108947         1.898833        -0.604964
