19
Iteration:  4939charge 0 multiplicity 1
 C        -3.828327         0.740907        -2.059664
 C        -2.532406         0.282718        -1.413464
 C        -1.669694        -0.684667        -2.267305
 C        -2.344378        -1.102086        -0.971222
 C        -1.353370        -1.394622         0.122919
 C        -0.293943        -0.258884         0.322938
 O         0.917241        -0.357373         0.642086
 C        -0.711891         1.124937         0.033803
 O        -2.013796         1.319714        -0.628414
 H        -4.394653        -0.209125        -2.262567
 H        -4.468981         1.363637        -1.423982
 H        -3.669623         1.192648        -2.990403
 H        -2.099866        -0.819994        -3.237333
 H        -0.577608        -0.788320        -2.075001
 H        -3.050485        -1.946982        -1.022273
 H        -1.761498        -1.495535         1.201855
 H        -0.901418        -2.381159         0.027040
 H        -0.690114         1.602927         1.009944
 H         0.148066         1.619360        -0.494578
