19
Iteration:  2768charge 0 multiplicity 1
 C        -3.843780         0.727665        -0.996837
 C        -2.508109         0.154265        -1.493785
 C        -2.310429        -0.949751        -2.528095
 C        -2.042355        -1.127123        -1.055213
 C        -0.718597        -1.274424        -0.407854
 C        -0.483620        -0.085549         0.478075
 O         0.203610        -0.156699         1.530557
 C        -0.778505         1.285344        -0.255744
 O        -1.330214         1.065066        -1.545875
 H        -4.483196         1.088329        -1.832788
 H        -4.433064        -0.071712        -0.558938
 H        -3.652902         1.384783        -0.137668
 H        -3.228776        -1.334765        -2.962582
 H        -1.561829        -0.939978        -3.271244
 H        -2.755345        -1.733672        -0.537501
 H        -0.546704        -2.165716         0.181908
 H         0.117382        -1.176864        -1.207819
 H        -1.288596         1.987469         0.407694
 H         0.264564         1.692703        -0.560999
