19
Iteration:  1172
 C        -3.628287         0.765521        -2.202421
 C        -2.415564         0.141701        -1.401289
 C        -1.707473        -0.979250        -2.115948
 C        -2.346531        -1.258621        -0.762085
 C        -1.342606        -1.288038         0.447590
 C        -0.401268        -0.130600         0.309410
 O         0.767967        -0.082279        -0.086441
 C        -0.988536         1.185336         0.499543
 O        -1.739826         1.251765        -0.747228
 H        -3.181015         1.209464        -3.163133
 H        -4.217725        -0.093384        -2.620217
 H        -4.123803         1.570590        -1.547853
 H        -2.220119        -1.274808        -3.033914
 H        -0.654968        -1.170801        -2.374991
 H        -3.156877        -1.944271        -0.727922
 H        -1.929467        -1.225712         1.289075
 H        -0.878825        -2.278201         0.586281
 H        -1.712246         1.336734         1.375629
 H        -0.223466         1.963954         0.402849
