19
Iteration:    71
 C        -3.917676         0.700287        -1.094358
 C        -2.506082         0.092487        -1.284118
 C        -2.262848        -1.078218        -2.181023
 C        -1.943012        -1.358319        -0.822218
 C        -0.450578        -1.311115        -0.517862
 C        -0.224331        -0.022696         0.211429
 O        -0.277000         0.160110         1.446107
 C        -0.449792         1.249316        -0.589809
 O        -1.638076         1.138081        -1.402316
 H        -4.595301         0.086991        -0.503822
 H        -3.661896         1.640180        -0.576361
 H        -4.420022         1.071804        -2.034522
 H        -3.264875        -1.507863        -2.496483
 H        -1.605869        -1.059319        -3.064176
 H        -2.519798        -2.176673        -0.271798
 H        -0.171449        -2.115361         0.219297
 H         0.169786        -1.452647        -1.431957
 H        -0.512818         1.995339         0.261413
 H         0.434686         1.526025        -1.299270
