19
Iteration:  3977charge 0 multiplicity 1
 C        -3.783606         0.918265        -1.440891
 C        -2.438185         0.274821        -1.639330
 C        -1.927056        -0.761380        -2.485163
 C        -2.208552        -1.208890        -1.020576
 C        -1.142646        -1.532959        -0.082646
 C        -0.348360        -0.202881         0.436582
 O         0.754155        -0.193912         0.898552
 C        -1.186413         1.041688         0.208032
 O        -1.490072         1.270081        -1.162504
 H        -4.615619         0.243108        -1.621534
 H        -3.733804         1.198256        -0.342852
 H        -3.876865         1.793930        -2.092772
 H        -2.441092        -1.114290        -3.434450
 H        -0.902721        -0.665181        -2.724684
 H        -3.192342        -1.504652        -0.749435
 H        -1.518875        -2.219404         0.707749
 H        -0.343913        -2.229137        -0.528647
 H        -2.224842         0.979520         0.745901
 H        -0.756179         1.989042         0.701686
