19
Iteration:  2941
 C        -3.689740         0.785861        -0.929728
 C        -2.457662         0.157335        -1.491353
 C        -2.385625        -0.944823        -2.493840
 C        -2.084296        -1.295642        -1.090993
 C        -0.581337        -1.277285        -0.541962
 C        -0.432566        -0.109723         0.443951
 O        -0.031069        -0.056255         1.632950
 C        -0.782152         1.291065        -0.268196
 O        -1.342827         1.028149        -1.567608
 H        -3.703835         1.849296        -1.266939
 H        -4.550918         0.233750        -1.250353
 H        -3.641589         0.952136         0.179389
 H        -3.330668        -1.255655        -2.966137
 H        -1.516975        -1.020617        -3.192314
 H        -2.719046        -1.959617        -0.504408
 H        -0.273186        -2.199495        -0.096171
 H         0.098551        -1.112509        -1.376979
 H        -1.396665         1.877666         0.484855
 H         0.149859         1.830498        -0.428652
