19
Iteration:  2823
 C        -3.796106         0.689168        -0.854026
 C        -2.484630         0.175622        -1.284810
 C        -2.356818        -0.836718        -2.293875
 C        -1.837368        -1.235203        -1.028610
 C        -0.418471        -1.382922        -0.589744
 C        -0.376741        -0.118298         0.251744
 O        -0.541374        -0.079896         1.486980
 C        -0.394584         1.161324        -0.489000
 O        -1.445117         1.224561        -1.464321
 H        -4.320544         0.906772        -1.831561
 H        -4.260824        -0.151115        -0.389361
 H        -3.937528         1.648380        -0.341136
 H        -3.260231        -1.387826        -2.421219
 H        -1.859732        -0.614604        -3.165788
 H        -2.529493        -1.774728        -0.437922
 H        -0.245254        -2.143634         0.198445
 H         0.339430        -1.566094        -1.409813
 H        -0.525667         1.957355         0.233131
 H         0.518200         1.411389        -1.173547
