19
Iteration:  1437charge 0 multiplicity 1
 C        -3.645623         0.912368        -0.868791
 C        -2.416501         0.123042        -1.436563
 C        -2.524486        -1.079575        -2.367523
 C        -1.958139        -1.266133        -0.990163
 C        -0.436313        -1.189101        -0.669162
 C        -0.390296        -0.051279         0.391155
 O        -0.362169        -0.202288         1.623288
 C        -0.598923         1.292926        -0.365844
 O        -1.341683         1.040329        -1.609687
 H        -3.684028         2.015860        -0.914277
 H        -4.658560         0.659485        -1.270382
 H        -3.873589         0.643778         0.213686
 H        -3.600515        -1.379243        -2.571102
 H        -1.809701        -1.287678        -3.176212
 H        -2.695324        -1.791061        -0.335246
 H         0.061697        -2.053446        -0.261791
 H         0.099166        -0.843978        -1.614239
 H        -1.100179         2.052772         0.256450
 H         0.334087         1.689508        -0.700609
