19
Iteration:   307
 C        -3.835127         0.623857        -1.191397
 C        -2.489043         0.105660        -1.525736
 C        -2.172218        -0.932531        -2.492188
 C        -2.131692        -1.228085        -1.000182
 C        -0.983635        -1.311819        -0.015822
 C        -0.364977        -0.022243         0.422958
 O         0.654048         0.185763         1.049754
 C        -1.092878         1.233041        -0.070497
 O        -1.352234         0.976317        -1.442824
 H        -4.024144         0.643306        -0.123611
 H        -4.010231         1.617607        -1.664086
 H        -4.616717        -0.124502        -1.599596
 H        -2.953458        -1.394205        -3.124530
 H        -1.276236        -0.770446        -3.192216
 H        -3.008376        -1.843328        -0.774173
 H        -1.436387        -1.767394         0.908537
 H        -0.155278        -2.002110        -0.155398
 H        -2.022301         1.473114         0.552189
 H        -0.287903         1.999770         0.082506
