19
Iteration:  4303
 C        -3.951395         0.723150        -1.868718
 C        -2.582891         0.237952        -1.456287
 C        -1.787112        -0.617125        -2.416126
 C        -2.186399        -1.184236        -1.103648
 C        -1.274286        -1.415612         0.165277
 C        -0.301862        -0.289833         0.463354
 O         0.855426        -0.386344         0.827580
 C        -0.690528         1.173553         0.071428
 O        -1.877842         1.367969        -0.884271
 H        -4.563333        -0.172371        -2.092002
 H        -4.277989         1.188816        -0.937984
 H        -3.763896         1.446165        -2.603028
 H        -2.315451        -1.108128        -3.325143
 H        -0.758836        -0.302718        -2.533714
 H        -2.935822        -1.918273        -1.168330
 H        -2.011027        -1.453270         0.972117
 H        -0.628010        -2.340823         0.150299
 H        -0.981229         1.794309         0.882712
 H         0.074755         1.656312        -0.535314
