19
Iteration:  1327charge 0 multiplicity 1
 C        -4.042067         0.751035        -1.651161
 C        -2.596002         0.249610        -1.405248
 C        -2.110340        -0.843957        -2.316220
 C        -2.198204        -1.143381        -0.887737
 C        -0.937218        -1.467098        -0.148297
 C        -0.169736        -0.166883         0.344194
 O         0.622340        -0.226627         1.273664
 C        -0.747332         1.223901        -0.161004
 O        -1.596325         1.275409        -1.294693
 H        -3.980170         1.146062        -2.674358
 H        -4.588922        -0.217511        -1.641151
 H        -4.537366         1.466421        -0.876243
 H        -2.798860        -1.259473        -3.005413
 H        -1.056644        -0.652654        -2.589533
 H        -3.123344        -1.762562        -0.708364
 H        -1.083179        -1.807667         0.857519
 H        -0.353173        -2.160306        -0.729485
 H        -1.223883         1.480701         0.800460
 H         0.130843         1.784441        -0.227617
