19
Iteration:  4872charge 0 multiplicity 1
 C        -4.013483         0.753591        -1.813515
 C        -2.610634         0.267154        -1.475550
 C        -1.630356        -0.535400        -2.367124
 C        -2.231197        -1.141755        -1.057716
 C        -1.348207        -1.372396         0.199813
 C        -0.255601        -0.319834         0.414944
 O         0.837179        -0.353950         0.878614
 C        -0.584721         1.068907        -0.195439
 O        -1.931854         1.260561        -0.798420
 H        -4.444793         0.401482        -2.744375
 H        -4.804476         0.595039        -1.001804
 H        -3.959192         1.745450        -1.877858
 H        -1.941208        -0.911853        -3.363404
 H        -0.648236        -0.293565        -2.229950
 H        -2.883435        -2.001448        -1.305540
 H        -2.193820        -1.504776         0.966405
 H        -0.931012        -2.377347         0.306409
 H        -0.630940         1.819275         0.568010
 H         0.228400         1.407245        -0.895263
