19
Iteration:  4096charge 0 multiplicity 1
 C        -3.901257         0.733223        -1.700207
 C        -2.505234         0.231895        -1.443223
 C        -1.824251        -0.668859        -2.483657
 C        -2.308794        -1.203525        -0.973609
 C        -1.111295        -1.433827        -0.165255
 C        -0.353992        -0.201345         0.418925
 O         0.649044        -0.344777         1.105758
 C        -0.641443         1.186326        -0.141881
 O        -1.822345         1.354981        -0.819114
 H        -4.482396         0.101545        -2.404045
 H        -4.575506         0.721486        -0.791538
 H        -4.059909         1.755386        -2.144883
 H        -2.380739        -1.143621        -3.266046
 H        -0.738401        -0.636322        -2.660409
 H        -3.213816        -1.729240        -0.993063
 H        -1.254076        -2.087253         0.689475
 H        -0.303214        -2.049011        -0.686061
 H        -0.532957         1.920027         0.607260
 H         0.247522         1.292260        -0.889608
