19
Iteration:  1352charge 0 multiplicity 1
 C        -3.939411         0.638529        -1.377811
 C        -2.460243         0.205480        -1.530136
 C        -2.232243        -0.901079        -2.469650
 C        -2.193970        -1.109184        -0.929987
 C        -0.900493        -1.330097        -0.219719
 C        -0.384552        -0.089044         0.496397
 O         0.497550        -0.283632         1.329986
 C        -0.753187         1.283117        -0.161675
 O        -1.455664         1.225880        -1.389329
 H        -4.214076         1.201090        -2.310105
 H        -4.582148        -0.248543        -1.177302
 H        -3.968721         1.281026        -0.489425
 H        -3.171233        -1.184695        -3.035974
 H        -1.262144        -0.942820        -2.966079
 H        -3.109115        -1.579604        -0.561835
 H        -0.728509        -2.072143         0.511815
 H        -0.153555        -1.425893        -0.975486
 H        -1.230034         1.836463         0.678320
 H         0.306025         1.717594        -0.251882
