19
Iteration:  3132charge 0 multiplicity 1
 C        -3.777277         0.754647        -1.954417
 C        -2.527705         0.219498        -1.392830
 C        -1.688034        -0.828328        -2.160366
 C        -2.235336        -1.218629        -0.822251
 C        -1.204462        -1.359963         0.306739
 C        -0.382259        -0.130054         0.372437
 O         0.828394        -0.273278         0.207154
 C        -1.175253         1.123721         0.313669
 O        -1.620438         1.344025        -0.971489
 H        -3.687600         1.846755        -1.898440
 H        -3.924209         0.408665        -3.061006
 H        -4.654433         0.570132        -1.317364
 H        -2.286355        -1.104947        -3.003068
 H        -0.601593        -0.804070        -2.362363
 H        -2.967375        -1.912710        -0.880319
 H        -1.786890        -1.643489         1.215946
 H        -0.672649        -2.302785         0.025296
 H        -2.018238         1.112672         1.070754
 H        -0.646124         2.003013         0.628268
