19
Iteration:  2715charge 0 multiplicity 1
 C        -3.816463         0.981676        -1.451673
 C        -2.540470         0.179617        -1.561503
 C        -2.287527        -1.048658        -2.436819
 C        -2.148186        -1.235199        -0.930376
 C        -0.729665        -1.342582        -0.318019
 C        -0.321076        -0.139605         0.433257
 O         0.611391        -0.029959         1.240495
 C        -1.106899         1.091956         0.084661
 O        -1.481206         1.101371        -1.342756
 H        -3.675118         2.022250        -1.842319
 H        -4.654925         0.638290        -2.015453
 H        -4.036765         1.012376        -0.368437
 H        -3.050325        -1.488400        -3.044061
 H        -1.316828        -1.093975        -2.785263
 H        -2.937443        -1.689699        -0.405058
 H        -0.551368        -2.125463         0.471584
 H         0.002593        -1.425707        -1.184034
 H        -1.873797         1.220565         0.882400
 H        -0.394133         1.970511         0.249633
