19
Iteration:    74charge 0 multiplicity 1
 C        -3.902787         0.718122        -1.066466
 C        -2.509609         0.092526        -1.289209
 C        -2.240869        -1.079162        -2.192055
 C        -1.929149        -1.373724        -0.841797
 C        -0.449882        -1.334791        -0.496373
 C        -0.222220        -0.019897         0.227188
 O        -0.295078         0.184096         1.428749
 C        -0.455317         1.232715        -0.592372
 O        -1.647676         1.138024        -1.415973
 H        -4.652566         0.021949        -0.518816
 H        -3.639808         1.666004        -0.479054
 H        -4.373069         1.218170        -1.887739
 H        -3.178031        -1.496913        -2.488719
 H        -1.642399        -1.037390        -3.051536
 H        -2.547352        -2.197202        -0.280541
 H        -0.147250        -2.176600         0.169443
 H         0.119496        -1.439939        -1.427797
 H        -0.555724         1.987403         0.234630
 H         0.378410         1.511583        -1.295470
