19
Iteration:  1738
 C        -3.924935         0.510148        -1.544700
 C        -2.468673         0.172964        -1.518414
 C        -1.888517        -0.681041        -2.572317
 C        -2.180961        -1.255523        -1.075334
 C        -1.398734        -1.178091         0.318096
 C        -0.324101        -0.144576         0.449045
 O         0.870665        -0.341985         0.731454
 C        -0.826840         1.233635         0.116175
 O        -1.610467         1.299090        -1.136988
 H        -4.151040         1.113883        -2.472968
 H        -4.588652        -0.343697        -1.700512
 H        -4.245352         1.251875        -0.743628
 H        -2.447649        -1.145166        -3.431563
 H        -0.839163        -0.501905        -2.803698
 H        -2.963944        -1.995726        -1.098907
 H        -2.226916        -0.857206         0.996094
 H        -1.120700        -2.124751         0.674705
 H        -1.331974         1.534344         1.121986
 H         0.108004         1.894089         0.024804
