19
Iteration:  2898charge 0 multiplicity 1
 C        -3.500270         0.808898        -0.625475
 C        -2.383020         0.114934        -1.431275
 C        -2.490719        -0.923177        -2.446470
 C        -1.873361        -1.287203        -1.090722
 C        -0.422120        -1.303266        -0.582892
 C        -0.419290        -0.002974         0.379881
 O        -0.549756        -0.100961         1.582940
 C        -0.725667         1.273681        -0.433349
 O        -1.311975         1.001679        -1.703802
 H        -3.570343         1.920170        -0.631197
 H        -4.431122         0.359433        -0.922079
 H        -3.323993         0.577673         0.446594
 H        -3.476486        -1.363766        -2.611611
 H        -1.813379        -0.655824        -3.222060
 H        -2.528336        -1.860761        -0.442293
 H        -0.253944        -2.197953        -0.021921
 H         0.380242        -1.235431        -1.341473
 H        -1.390630         1.969099         0.145358
 H         0.130147         1.929589        -0.551291
