19
Iteration:  4435
 C        -3.764811         0.691872        -2.159316
 C        -2.615201         0.208081        -1.404661
 C        -1.595528        -0.540277        -2.249618
 C        -2.253190        -1.134241        -0.950322
 C        -1.431340        -1.159860         0.326480
 C        -0.245242        -0.193510         0.215632
 O         0.862080        -0.537577         0.552430
 C        -0.656045         1.175916        -0.094308
 O        -2.095980         1.164513        -0.438873
 H        -3.973271        -0.027404        -2.967296
 H        -4.727054         0.786481        -1.565787
 H        -3.687444         1.584163        -2.669557
 H        -1.968837        -0.937083        -3.195956
 H        -0.431482        -0.437556        -2.364843
 H        -3.002870        -1.923913        -1.043558
 H        -1.889648        -0.921770         1.302563
 H        -0.958867        -2.215204         0.558806
 H        -0.646975         1.698485         0.847377
 H        -0.056911         1.807634        -0.752203
