19
Iteration:  1810charge 0 multiplicity 1
 C        -3.722360         0.800205        -2.130795
 C        -2.578807         0.181903        -1.388376
 C        -1.906763        -0.902882        -2.194478
 C        -2.374123        -1.134457        -0.717802
 C        -1.206475        -1.432097         0.256923
 C        -0.240212        -0.191118         0.293218
 O         0.963239        -0.193217         0.486042
 C        -0.926618         1.187998         0.167610
 O        -1.848987         1.310786        -0.905738
 H        -3.418822         1.851360        -2.329573
 H        -3.932646         0.247767        -3.121545
 H        -4.695660         0.895691        -1.498282
 H        -2.439174        -1.531283        -2.872907
 H        -0.855776        -0.763897        -2.460429
 H        -3.272472        -1.824604        -0.669376
 H        -1.485970        -1.629635         1.313491
 H        -0.664223        -2.347440        -0.139375
 H        -1.360298         1.326004         1.137373
 H        -0.049703         1.817848         0.076266
