19
Iteration:  3965
 C        -3.779262         1.008912        -1.484167
 C        -2.454694         0.296905        -1.593193
 C        -1.939887        -0.845830        -2.506266
 C        -2.248963        -1.155246        -1.082266
 C        -1.034700        -1.585493        -0.102749
 C        -0.412706        -0.237985         0.514553
 O         0.781436        -0.108764         0.858816
 C        -1.290527         1.022567         0.264462
 O        -1.419068         1.173027        -1.144702
 H        -4.681710         0.457225        -1.782759
 H        -4.000430         1.256718        -0.389985
 H        -3.793153         2.075496        -1.913196
 H        -2.641564        -1.321200        -3.220499
 H        -0.906252        -0.627686        -2.731641
 H        -3.258032        -1.530207        -0.765552
 H        -1.305496        -2.126527         0.822955
 H        -0.224703        -2.046530        -0.787236
 H        -2.278021         0.894393         0.857150
 H        -0.576498         1.924432         0.510374
