19
Iteration:  2169
 C        -3.647144         0.815592        -0.877860
 C        -2.409400         0.177872        -1.447562
 C        -2.394123        -1.033882        -2.390414
 C        -1.909028        -1.189069        -0.884941
 C        -0.409779        -1.274200        -0.514843
 C        -0.493069        -0.094070         0.313678
 O        -0.312743        -0.197054         1.501622
 C        -0.661614         1.217903        -0.406202
 O        -1.476898         1.162202        -1.568087
 H        -3.617637         1.807033        -1.272843
 H        -4.544669         0.299288        -1.292966
 H        -3.840789         0.987636         0.183372
 H        -3.417718        -1.548860        -2.495934
 H        -1.646859        -0.983591        -3.160969
 H        -2.580891        -1.739799        -0.285689
 H        -0.039078        -2.171898         0.074377
 H         0.269131        -0.956804        -1.364875
 H        -1.088640         2.057907         0.112662
 H         0.392322         1.392464        -0.776612
