19
Iteration:  2626
 C        -3.950145         0.735686        -1.599372
 C        -2.520034         0.190659        -1.544452
 C        -1.659269        -0.713128        -2.350419
 C        -2.149757        -1.185221        -0.963079
 C        -1.184446        -1.429604         0.210673
 C        -0.320224        -0.211092         0.360954
 O         0.819081        -0.273589         0.684152
 C        -1.096206         1.187728         0.116858
 O        -1.712691         1.327292        -1.162449
 H        -4.226886         1.229159        -2.556069
 H        -4.759126         0.053476        -1.325358
 H        -3.845626         1.400179        -0.746076
 H        -2.219328        -1.227462        -3.165526
 H        -0.597379        -0.447408        -2.697004
 H        -2.916629        -2.004129        -0.919892
 H        -1.705304        -1.566172         1.193779
 H        -0.545532        -2.394679         0.207182
 H        -1.869085         1.265356         0.938439
 H        -0.262073         1.967018         0.093388
