19
Iteration:   479
 C        -3.978741         0.486136        -1.940628
 C        -2.601985         0.100115        -1.423021
 C        -1.424369        -0.509960        -2.166053
 C        -1.984903        -1.201738        -0.908713
 C        -1.322189        -1.208017         0.558599
 C        -0.264260        -0.160319         0.280773
 O         0.925956        -0.462872         0.357928
 C        -0.898231         1.245746        -0.158625
 O        -2.207879         1.340971        -0.757881
 H        -3.874421         0.803516        -2.953637
 H        -4.681425        -0.382709        -1.940901
 H        -4.472949         1.221844        -1.233139
 H        -1.751632        -1.140143        -3.058829
 H        -0.498574         0.124082        -2.244072
 H        -2.462449        -2.155935        -1.103489
 H        -2.020247        -0.931626         1.294776
 H        -0.901158        -2.282429         0.861563
 H        -0.875302         1.854041         0.782996
 H        -0.075802         1.843732        -0.759085
