19
Iteration:  2117
 C        -3.673635         0.702978        -1.067373
 C        -2.406734         0.136436        -1.422637
 C        -2.473752        -0.881626        -2.430368
 C        -2.053711        -1.258813        -1.013119
 C        -0.670367        -1.184447        -0.483488
 C        -0.459747        -0.034979         0.401829
 O         0.010795        -0.117381         1.487394
 C        -0.742889         1.231634        -0.243237
 O        -1.291587         0.998916        -1.518070
 H        -3.998068         1.576754        -1.596017
 H        -4.495000        -0.016955        -1.072113
 H        -3.598150         1.019642        -0.048176
 H        -3.526998        -1.149096        -2.783393
 H        -1.814252        -0.839207        -3.288261
 H        -2.699494        -1.872959        -0.426453
 H        -0.427844        -2.001556         0.212360
 H         0.171171        -1.004384        -1.226915
 H        -1.418704         1.865628         0.312441
 H         0.248808         1.807910        -0.332247
