19
Iteration:   886
 C        -3.733071         0.583937        -0.593351
 C        -2.503480         0.149343        -1.375413
 C        -2.254146        -0.829601        -2.465647
 C        -1.937542        -1.257701        -1.114540
 C        -0.483259        -1.270731        -0.519868
 C        -0.447947        -0.097758         0.362850
 O        -0.471156         0.013084         1.587696
 C        -0.499138         1.232296        -0.491938
 O        -1.399562         1.066261        -1.646030
 H        -4.368973         1.355856        -1.155519
 H        -4.435855        -0.249065        -0.325073
 H        -3.345875         1.076385         0.328916
 H        -2.984451        -1.399108        -2.953151
 H        -1.510940        -0.413385        -3.162247
 H        -2.810781        -1.828521        -0.746544
 H        -0.116566        -2.225456        -0.133754
 H         0.114881        -1.034705        -1.511378
 H        -0.708595         2.098902         0.140275
 H         0.557910         1.264853        -1.012037
