19
Iteration:   429
 C        -3.820808         0.449569        -1.924373
 C        -2.437331         0.157624        -1.390122
 C        -1.759545        -0.965805        -2.226281
 C        -2.325843        -1.202948        -0.887404
 C        -1.182826        -1.229686         0.156194
 C        -0.206721        -0.029854         0.211394
 O         0.946619        -0.256183         0.534159
 C        -0.865912         1.353316         0.078195
 O        -2.063592         1.388351        -0.785985
 H        -3.891403         1.407532        -2.456435
 H        -4.167560        -0.211802        -2.753547
 H        -4.588661         0.229904        -1.172147
 H        -2.351291        -1.253725        -3.132944
 H        -0.701378        -1.153947        -2.256731
 H        -3.307479        -1.751167        -0.584886
 H        -1.674527        -1.322337         1.201161
 H        -0.639692        -2.131726         0.089739
 H        -1.231536         1.571680         1.092611
 H        -0.197467         2.155574        -0.053999
