19
Iteration:   990charge 0 multiplicity 1
 C        -3.845307         0.834823        -1.295486
 C        -2.493057         0.155747        -1.479136
 C        -2.393875        -0.971860        -2.430764
 C        -2.069643        -1.228157        -0.944154
 C        -0.657360        -1.337409        -0.421901
 C        -0.296877        -0.040803         0.438830
 O         0.293298        -0.186335         1.483458
 C        -0.873324         1.249975        -0.133821
 O        -1.405430         1.130814        -1.464860
 H        -3.901945         1.568829        -2.047245
 H        -4.674086         0.181668        -1.446245
 H        -4.034995         1.361315        -0.365021
 H        -3.271511        -1.386633        -2.907136
 H        -1.496865        -1.094672        -3.058541
 H        -2.819466        -1.729123        -0.347240
 H        -0.547699        -2.242673         0.195359
 H         0.011047        -1.378716        -1.251055
 H        -1.590908         1.691312         0.628638
 H        -0.138477         1.997633        -0.336658
