19
Iteration:  4102charge 0 multiplicity 1
 C        -3.989255         0.711811        -1.719858
 C        -2.517701         0.280931        -1.488957
 C        -1.851780        -0.672752        -2.478990
 C        -2.253246        -1.153385        -1.022741
 C        -1.129659        -1.409783        -0.114472
 C        -0.360242        -0.218166         0.446925
 O         0.678995        -0.348213         1.124471
 C        -0.603038         1.108023        -0.149095
 O        -1.833096         1.335932        -0.802442
 H        -4.391558         0.037828        -2.477415
 H        -4.512182         0.754759        -0.779588
 H        -3.884539         1.713739        -2.156561
 H        -2.433174        -1.063405        -3.366067
 H        -0.803924        -0.542413        -2.713026
 H        -3.120490        -1.952735        -0.881227
 H        -1.266780        -2.041980         0.789985
 H        -0.311577        -1.830096        -0.673003
 H        -0.299371         2.014445         0.512139
 H         0.124272         1.378778        -0.899659
