19
Iteration:   221
 C        -3.897471         0.551017        -1.289237
 C        -2.443939         0.097586        -1.362942
 C        -2.534570        -1.149378        -2.166569
 C        -2.087328        -1.176546        -0.715245
 C        -0.545953        -1.139081        -0.647661
 C        -0.244338         0.066709         0.318708
 O         0.112229        -0.020643         1.512885
 C        -0.723277         1.309099        -0.306667
 O        -1.345504         1.085527        -1.573604
 H        -4.538003        -0.117692        -1.829776
 H        -4.376513         0.603821        -0.302264
 H        -3.988613         1.545657        -1.846113
 H        -3.579200        -1.552557        -2.444378
 H        -1.628209        -1.362675        -2.780273
 H        -2.723276        -1.547018         0.109121
 H        -0.218549        -2.091407        -0.171383
 H        -0.060901        -0.946495        -1.570246
 H        -1.438457         1.844805         0.326574
 H         0.191728         1.907579        -0.321087
