19
Iteration:  4415charge 0 multiplicity 1
 C        -3.853730         0.791005        -2.187832
 C        -2.657592         0.199156        -1.448077
 C        -1.583318        -0.533763        -2.106095
 C        -2.243553        -1.245261        -0.942497
 C        -1.442219        -1.212826         0.298992
 C        -0.175571        -0.294464         0.220761
 O         0.978221        -0.490082         0.593438
 C        -0.762126         1.137319        -0.137595
 O        -2.100855         1.208827        -0.490228
 H        -4.000178         0.285891        -3.141737
 H        -4.835947         0.944652        -1.592100
 H        -3.575224         1.797566        -2.495353
 H        -1.742748        -0.837075        -3.119416
 H        -0.538245        -0.164302        -2.088624
 H        -2.822907        -2.200793        -1.068595
 H        -2.040451        -0.572795         0.941396
 H        -1.018568        -2.180355         0.801862
 H        -0.573560         1.654844         0.782966
 H        -0.093818         1.693285        -0.870705
