19
Iteration:  3106
 C        -3.763181         0.787799        -1.707480
 C        -2.415696         0.164181        -1.543006
 C        -1.709025        -0.938962        -2.329288
 C        -2.261711        -1.204084        -0.915153
 C        -1.257203        -1.400138         0.249021
 C        -0.415633        -0.094412         0.389713
 O         0.766995        -0.098407         0.275194
 C        -1.215961         1.187935         0.437013
 O        -1.480988         1.172409        -1.020962
 H        -3.595521         1.894373        -1.762724
 H        -4.220030         0.416681        -2.620023
 H        -4.481735         0.771466        -0.852251
 H        -2.313704        -1.203572        -3.234579
 H        -0.658626        -0.986911        -2.552049
 H        -3.360917        -1.635862        -0.771688
 H        -1.913685        -1.586447         1.147656
 H        -0.752174        -2.320903         0.115211
 H        -2.040902         1.343384         1.103035
 H        -0.574148         2.127319         0.529400
