19
Iteration:  4740charge 0 multiplicity 1
 C        -3.976843         0.773118        -1.741063
 C        -2.528316         0.203612        -1.511892
 C        -1.922695        -0.718249        -2.429055
 C        -2.344637        -1.097067        -1.062349
 C        -1.075912        -1.357561        -0.178483
 C        -0.195007        -0.193014         0.361157
 O         0.601730        -0.416240         1.250653
 C        -0.516499         1.185461        -0.212905
 O        -1.846562         1.285781        -0.763511
 H        -4.660726         0.095623        -2.235744
 H        -4.400765         0.997981        -0.677325
 H        -3.844166         1.673627        -2.252174
 H        -2.440696        -1.149948        -3.230592
 H        -0.790652        -0.651378        -2.494913
 H        -3.088737        -1.935507        -1.116269
 H        -1.249796        -1.970145         0.739921
 H        -0.459455        -1.884640        -0.858701
 H        -0.587052         1.920464         0.625755
 H         0.334944         1.465832        -0.817193
