19
Iteration:  1722
 C        -4.001976         0.653156        -1.518333
 C        -2.567952         0.148507        -1.457604
 C        -1.808708        -0.723414        -2.481559
 C        -2.033972        -1.223627        -1.111801
 C        -1.386149        -1.245903         0.198014
 C        -0.311725        -0.106302         0.312690
 O         0.761432        -0.349464         0.840326
 C        -0.809705         1.296840         0.074710
 O        -1.552574         1.158975        -1.124660
 H        -4.313475         1.174459        -2.411785
 H        -4.690818        -0.135981        -1.219307
 H        -4.210805         1.275733        -0.669995
 H        -2.423203        -1.241519        -3.195532
 H        -0.946879        -0.280703        -2.972622
 H        -2.899592        -1.928454        -1.119547
 H        -2.161262        -0.968060         0.947853
 H        -0.816015        -2.186473         0.516423
 H        -1.504623         1.708252         0.817943
 H        -0.128892         2.062293        -0.186909
