19
Iteration:  2796charge 0 multiplicity 1
 C        -3.815320         0.711701        -0.910578
 C        -2.533948         0.081999        -1.448928
 C        -2.332657        -0.899770        -2.482144
 C        -2.028923        -1.254164        -1.043568
 C        -0.565730        -1.299412        -0.508409
 C        -0.357467        -0.099044         0.394881
 O        -0.180747        -0.103669         1.592237
 C        -0.477333         1.225379        -0.437067
 O        -1.461900         1.187503        -1.469876
 H        -4.502892         0.981856        -1.710724
 H        -4.274230         0.002010        -0.157141
 H        -3.591818         1.617830        -0.333465
 H        -3.157105        -1.115136        -3.221155
 H        -1.336007        -0.767082        -3.060073
 H        -2.713017        -1.765888        -0.311849
 H        -0.277594        -2.152657         0.124238
 H         0.131464        -1.249797        -1.310573
 H        -0.840248         1.927713         0.397365
 H         0.344301         1.609194        -0.980478
