19
Iteration:  4735
 C        -3.963051         0.720361        -1.749451
 C        -2.547181         0.250123        -1.512037
 C        -1.913733        -0.720295        -2.459131
 C        -2.386773        -1.127958        -1.014186
 C        -1.089119        -1.362627        -0.204218
 C        -0.157878        -0.207542         0.357823
 O         0.604380        -0.424386         1.282693
 C        -0.515460         1.229026        -0.230541
 O        -1.821262         1.298454        -0.750261
 H        -4.687063         0.008971        -2.204095
 H        -4.405389         0.913752        -0.824669
 H        -3.874845         1.821996        -2.131388
 H        -2.498738        -1.159529        -3.343731
 H        -0.871342        -0.585561        -2.594787
 H        -3.108931        -1.900059        -1.099325
 H        -1.450976        -1.890046         0.708055
 H        -0.329094        -1.961111        -0.871589
 H        -0.629328         1.899953         0.641282
 H         0.383279         1.522948        -0.873241
