19
Iteration:  4063charge 0 multiplicity 1
 C        -3.959661         0.769650        -1.690187
 C        -2.498274         0.249548        -1.440244
 C        -1.850455        -0.672531        -2.431934
 C        -2.237037        -1.191832        -1.000025
 C        -1.020291        -1.480089        -0.058764
 C        -0.245354        -0.265175         0.207298
 O         0.587999        -0.355306         1.122551
 C        -0.723274         1.146556        -0.078072
 O        -1.794512         1.440960        -0.932154
 H        -4.524614        -0.068984        -2.175914
 H        -4.519865         1.006150        -0.696941
 H        -3.990082         1.719153        -2.351167
 H        -2.511839        -1.207023        -3.143156
 H        -0.829952        -0.476485        -2.697398
 H        -3.133471        -1.842821        -0.885752
 H        -1.425959        -1.838857         0.897572
 H        -0.403931        -2.309616        -0.552128
 H        -1.053684         1.357049         0.900390
 H         0.293425         1.654817        -0.270645
