19
Iteration:  4790charge 0 multiplicity 1
 C        -4.030648         0.747743        -1.727722
 C        -2.506075         0.277761        -1.383095
 C        -1.804452        -0.489667        -2.442240
 C        -2.202676        -1.163684        -1.105137
 C        -1.180279        -1.514900        -0.009379
 C        -0.242258        -0.335428         0.332684
 O         0.640335        -0.271306         1.188199
 C        -0.573735         1.004909        -0.334063
 O        -1.869509         1.359467        -0.757354
 H        -4.570239        -0.196866        -1.983262
 H        -4.522194         1.184808        -0.909061
 H        -4.084255         1.378157        -2.734380
 H        -2.382261        -0.826336        -3.345973
 H        -0.768816        -0.162220        -2.626828
 H        -3.014116        -1.865303        -1.107876
 H        -1.748478        -1.814612         0.898396
 H        -0.465406        -2.376839        -0.209901
 H        -0.366432         1.808387         0.418676
 H         0.250783         1.174670        -1.082220
