19
Iteration:   384
 C        -4.076406         0.634729        -1.934491
 C        -2.640288         0.179323        -1.400006
 C        -1.920938        -0.856199        -2.226930
 C        -2.274906        -1.272345        -0.750291
 C        -1.038550        -1.424776         0.125340
 C        -0.155806        -0.146172         0.402636
 O         0.999936         0.030557         0.736146
 C        -0.943859         1.150339         0.044290
 O        -1.771544         1.304405        -1.132135
 H        -3.965620         1.697638        -1.879980
 H        -4.241835         0.445794        -3.028393
 H        -4.898594         0.132836        -1.352037
 H        -2.340988        -1.438180        -3.079298
 H        -0.824096        -0.562170        -2.336192
 H        -3.123853        -2.015170        -0.801424
 H        -1.426851        -1.915087         1.068027
 H        -0.299390        -2.105681        -0.266306
 H        -1.516519         1.339587         0.980017
 H        -0.212057         1.926757         0.061817
