19
Iteration:  2355
 C        -3.860556         0.821399        -1.469062
 C        -2.496086         0.214293        -1.432535
 C        -2.159228        -0.910236        -2.328598
 C        -2.118438        -1.198811        -0.886223
 C        -0.782467        -1.491678        -0.279891
 C        -0.352824        -0.145509         0.414750
 O         0.544318        -0.085792         1.216260
 C        -1.015459         1.200032        -0.057282
 O        -1.545950         1.199723        -1.387908
 H        -3.639082         1.907694        -1.647493
 H        -4.432392         0.325234        -2.318635
 H        -4.566415         0.773146        -0.607200
 H        -2.887121        -1.473171        -2.958616
 H        -1.116948        -0.824490        -2.774348
 H        -2.930590        -1.790649        -0.426223
 H        -0.833440        -2.279237         0.495824
 H        -0.153344        -1.812396        -1.097981
 H        -1.679586         1.658206         0.764829
 H        -0.125685         1.854257        -0.057458
