19
Iteration:  4887charge 0 multiplicity 1
 C        -3.993529         0.769629        -1.895600
 C        -2.572494         0.245542        -1.515123
 C        -1.674129        -0.641143        -2.309036
 C        -2.233530        -1.158542        -1.021033
 C        -1.270614        -1.390111         0.160741
 C        -0.253302        -0.240967         0.381182
 O         0.864758        -0.497027         0.848373
 C        -0.736245         1.150625        -0.118434
 O        -1.970234         1.372564        -0.770141
 H        -4.360720         0.359144        -2.866070
 H        -4.576171         0.510725        -1.072840
 H        -3.913078         1.939355        -2.119058
 H        -2.035984        -1.113876        -3.220856
 H        -0.565741        -0.209919        -2.290150
 H        -3.100970        -1.818877        -0.894534
 H        -1.640457        -1.386930         1.177673
 H        -0.647003        -2.297933         0.062823
 H        -0.589753         1.859811         0.727876
 H         0.103360         1.355314        -0.780415
