19
Iteration:  4781charge 0 multiplicity 1
 C        -3.927498         0.743323        -1.715647
 C        -2.583525         0.318782        -1.391516
 C        -1.847555        -0.488750        -2.435845
 C        -2.138816        -1.223542        -1.094053
 C        -1.158800        -1.595520        -0.018977
 C        -0.280189        -0.349638         0.357448
 O         0.646590        -0.242124         1.172645
 C        -0.574928         1.048061        -0.243752
 O        -1.924504         1.389733        -0.830158
 H        -4.603203        -0.074855        -1.934806
 H        -4.383122         1.372207        -0.990898
 H        -3.740784         1.556929        -2.506299
 H        -2.419952        -0.905259        -3.282213
 H        -0.749113        -0.355965        -2.805447
 H        -3.053955        -1.823778        -1.035075
 H        -1.696881        -1.957662         0.948000
 H        -0.410285        -2.383644        -0.488359
 H        -0.197444         1.824540         0.514243
 H         0.013658         0.989722        -1.207736
