19
Iteration:  4733charge 0 multiplicity 1
 C        -3.950366         0.708096        -1.755595
 C        -2.563786         0.279321        -1.508329
 C        -1.912610        -0.722388        -2.479253
 C        -2.384908        -1.145677        -0.996918
 C        -1.092153        -1.371312        -0.212154
 C        -0.156026        -0.212152         0.354728
 O         0.606767        -0.426756         1.294263
 C        -0.511408         1.241353        -0.230534
 O        -1.814853         1.302775        -0.751591
 H        -4.654628        -0.007838        -2.234939
 H        -4.447271         0.889245        -0.764029
 H        -3.925891         1.788586        -2.113115
 H        -2.472471        -1.095100        -3.322712
 H        -0.885213        -0.577364        -2.661533
 H        -3.172305        -1.904226        -1.040772
 H        -1.477289        -1.854763         0.644365
 H        -0.345595        -1.980225        -0.777722
 H        -0.595398         1.868252         0.614924
 H         0.340898         1.559613        -0.906080
