19
Iteration:  2280charge 0 multiplicity 1
 C        -3.848143         0.757514        -1.031702
 C        -2.446933         0.210027        -1.424689
 C        -2.316372        -0.945084        -2.409093
 C        -2.051300        -1.196584        -0.975367
 C        -0.617415        -1.326811        -0.513112
 C        -0.391432        -0.099724         0.361881
 O         0.000224        -0.064708         1.504321
 C        -0.785753         1.249460        -0.260424
 O        -1.302286         1.038258        -1.545871
 H        -4.300977         1.484410        -1.723677
 H        -4.484227        -0.144942        -0.979221
 H        -3.858423         1.160166        -0.034183
 H        -3.191032        -1.436839        -2.847990
 H        -1.467182        -0.809826        -3.165226
 H        -2.706084        -1.792209        -0.302806
 H        -0.287192        -2.208171         0.030978
 H         0.132664        -1.200749        -1.348969
 H        -1.496468         1.776584         0.365860
 H         0.158141         1.840153        -0.141079
