19
Iteration:  2624charge 0 multiplicity 1
 C        -3.950003         0.730302        -1.598323
 C        -2.539737         0.189010        -1.534788
 C        -1.637322        -0.696930        -2.332750
 C        -2.146110        -1.192395        -0.973979
 C        -1.186588        -1.427343         0.218680
 C        -0.326155        -0.193428         0.335788
 O         0.814432        -0.285967         0.673658
 C        -1.088137         1.198168         0.132620
 O        -1.705909         1.308828        -1.163474
 H        -4.236129         1.210051        -2.541939
 H        -4.789699         0.031222        -1.332959
 H        -3.815665         1.414545        -0.762836
 H        -2.240127        -1.239683        -3.140809
 H        -0.541565        -0.431654        -2.644729
 H        -2.934600        -2.013655        -0.933706
 H        -1.802364        -1.490500         1.126660
 H        -0.539554        -2.402802         0.208959
 H        -1.844052         1.337763         0.926237
 H        -0.308931         1.964065         0.109188
