19
Iteration:  2007
 C        -3.883531         0.784312        -1.666103
 C        -2.475119         0.207103        -1.606233
 C        -2.130575        -1.000037        -2.396350
 C        -2.349150        -1.071966        -0.821052
 C        -0.997718        -1.367872        -0.170565
 C        -0.222226        -0.068579         0.384844
 O         0.789573        -0.197307         1.076123
 C        -0.999174         1.204699         0.150815
 O        -1.527433         1.171066        -1.224208
 H        -3.772074         1.716863        -2.197262
 H        -4.592837         0.035169        -2.072465
 H        -4.137774         1.017519        -0.638671
 H        -2.920921        -1.392781        -3.032058
 H        -1.042208        -1.122095        -2.685770
 H        -3.255488        -1.549155        -0.444317
 H        -1.020939        -1.974950         0.785517
 H        -0.240883        -1.897381        -0.824607
 H        -1.894912         1.157773         0.838640
 H        -0.427144         2.211235         0.292116
