19
Iteration:  4919
 C        -3.754819         0.603617        -2.036004
 C        -2.457174         0.295788        -1.398064
 C        -1.765707        -0.680554        -2.290649
 C        -2.417395        -1.174012        -0.973275
 C        -1.291939        -1.380286         0.051246
 C        -0.304079        -0.235155         0.233628
 O         0.827277        -0.409209         0.733063
 C        -0.712269         1.228016         0.001969
 O        -1.934161         1.383911        -0.585646
 H        -4.216377        -0.224124        -2.614200
 H        -4.468395         0.870777        -1.307349
 H        -3.743246         1.573875        -2.656334
 H        -2.314933        -0.953384        -3.182513
 H        -0.572926        -0.737885        -2.292755
 H        -3.421516        -1.575344        -0.733570
 H        -1.695022        -1.611387         1.075621
 H        -0.667902        -2.282474         0.005498
 H        -0.700239         1.775723         0.966080
 H         0.133406         1.711843        -0.515969
