19
Iteration:   963charge 0 multiplicity 1
 C        -3.740997         1.017722        -1.245108
 C        -2.575563         0.096343        -1.457299
 C        -2.423036        -1.071487        -2.272643
 C        -1.949331        -1.187890        -0.799826
 C        -0.404181        -1.066516        -0.669514
 C        -0.353392        -0.071556         0.393169
 O         0.004782        -0.288623         1.543281
 C        -0.918720         1.207949        -0.203026
 O        -1.353765         0.974143        -1.509372
 H        -3.955476         1.751279        -2.110701
 H        -4.717113         0.424649        -1.180089
 H        -3.697971         1.527866        -0.267252
 H        -3.317996        -1.675680        -2.490771
 H        -1.719314        -1.180493        -3.100797
 H        -2.526701        -1.849147        -0.118853
 H        -0.003308        -2.091022        -0.553830
 H        -0.103133        -0.547002        -1.651403
 H        -1.644762         1.534649         0.536844
 H        -0.168019         2.059429        -0.386519
