19
Iteration:  1020charge 0 multiplicity 1
 C        -3.917018         0.624921        -1.244849
 C        -2.467875         0.232128        -1.535704
 C        -2.170122        -0.836745        -2.552865
 C        -2.154562        -1.168179        -1.045960
 C        -1.010382        -1.474867        -0.148152
 C        -0.351371        -0.144457         0.449701
 O         0.548343         0.007750         1.302777
 C        -0.838404         1.177571        -0.129528
 O        -1.431340         1.208636        -1.377258
 H        -4.155387         1.439494        -1.964003
 H        -4.507291        -0.290044        -1.415703
 H        -4.143273         1.028066        -0.250976
 H        -2.980767        -1.245413        -3.232594
 H        -1.117419        -0.873503        -2.900174
 H        -3.091975        -1.569017        -0.735532
 H        -1.386070        -2.271448         0.609575
 H        -0.209575        -1.989427        -0.776621
 H        -1.280531         1.641493         0.767813
 H         0.110197         1.784847        -0.263392
