19
Iteration:   908charge 0 multiplicity 1
 C        -3.702650         0.665262        -0.753820
 C        -2.406303         0.159584        -1.385938
 C        -2.392291        -0.970429        -2.379745
 C        -1.941572        -1.188502        -0.955191
 C        -0.393828        -1.205999        -0.611826
 C        -0.400780        -0.010283         0.295632
 O        -0.474928        -0.199452         1.497952
 C        -0.608265         1.310883        -0.356428
 O        -1.352650         1.090879        -1.640361
 H        -4.401002         1.164273        -1.512949
 H        -4.207121        -0.295963        -0.441814
 H        -3.530518         1.296894         0.143894
 H        -3.375659        -1.256355        -2.642533
 H        -1.594855        -1.003128        -3.153242
 H        -2.597807        -1.597541        -0.145917
 H        -0.279133        -2.132815        -0.041414
 H         0.323614        -1.327425        -1.527671
 H        -1.103849         1.981765         0.344877
 H         0.318670         1.811203        -0.822040
