19
Iteration:   607
 C        -3.898821         0.416606        -1.836634
 C        -2.396517         0.209716        -1.427701
 C        -1.983925        -0.908059        -2.359482
 C        -2.290486        -1.152664        -0.848716
 C        -1.114311        -1.369572         0.125092
 C        -0.242043        -0.104863         0.253929
 O         0.879623        -0.137190         0.736592
 C        -0.879221         1.280103         0.070880
 O        -1.829464         1.391500        -0.967823
 H        -3.898437         1.395291        -2.397533
 H        -4.218434        -0.456881        -2.451231
 H        -4.407423         0.470345        -0.836149
 H        -2.760457        -1.206901        -3.152365
 H        -1.001511        -0.912489        -2.814385
 H        -3.126392        -1.712351        -0.504318
 H        -1.534183        -1.221776         1.231952
 H        -0.459821        -2.287960         0.042101
 H        -1.406890         1.431001         1.047020
 H        -0.131678         2.020771        -0.039755
