19
Iteration:  1651charge 0 multiplicity 1
 C        -3.829030         0.855223        -1.628592
 C        -2.492204         0.190204        -1.483927
 C        -2.379246        -0.982906        -2.387952
 C        -2.221156        -1.136068        -0.855938
 C        -0.784313        -1.358558        -0.314921
 C        -0.255692        -0.069431         0.402165
 O         0.628185        -0.180498         1.229150
 C        -1.043605         1.196505         0.109597
 O        -1.404357         1.118621        -1.300187
 H        -3.643782         1.786143        -2.274940
 H        -4.563813         0.109080        -2.043232
 H        -4.314636         0.999251        -0.574536
 H        -3.262963        -1.186630        -2.974951
 H        -1.450747        -1.036839        -2.999717
 H        -2.978115        -1.655706        -0.244600
 H        -0.715052        -2.104048         0.485972
 H        -0.075431        -1.603647        -1.083058
 H        -1.914093         1.236424         0.721101
 H        -0.401001         2.136742         0.202245
