19
Iteration:  3787charge 0 multiplicity 1
 C        -3.944475         0.760588        -1.253548
 C        -2.427218         0.253417        -1.509422
 C        -2.018668        -0.722033        -2.591238
 C        -2.083457        -1.129166        -1.113860
 C        -0.949279        -1.489427        -0.239268
 C        -0.384802        -0.268061         0.315094
 O         0.419491        -0.277432         1.268318
 C        -0.851216         1.137604         0.012403
 O        -1.505284         1.361826        -1.237349
 H        -4.581578         0.239112        -1.982478
 H        -4.233108         0.523951        -0.299194
 H        -4.192952         1.820146        -1.554161
 H        -2.688462        -1.173334        -3.305445
 H        -1.035861        -0.464403        -2.925949
 H        -2.912066        -1.772280        -0.796861
 H        -1.354693        -1.964825         0.700004
 H        -0.140069        -2.200323        -0.547225
 H        -1.508059         1.563304         0.914638
 H         0.117442         1.599386         0.016538
