19
Iteration:  4889charge 0 multiplicity 1
 C        -3.974855         0.760468        -1.903591
 C        -2.568267         0.260763        -1.504504
 C        -1.667108        -0.666279        -2.316592
 C        -2.248958        -1.152153        -1.014867
 C        -1.256160        -1.375829         0.160173
 C        -0.241170        -0.251177         0.367797
 O         0.851183        -0.508378         0.841374
 C        -0.759014         1.161221        -0.114173
 O        -1.970708         1.384501        -0.759565
 H        -4.324713         0.348267        -2.864580
 H        -4.608495         0.520161        -1.059386
 H        -3.917425         1.950693        -2.155305
 H        -2.090981        -1.122805        -3.205873
 H        -0.597036        -0.209751        -2.301342
 H        -3.078412        -1.848911        -0.890177
 H        -1.611375        -1.466051         1.174631
 H        -0.590226        -2.283048         0.104417
 H        -0.600594         1.890820         0.733246
 H         0.097516         1.384505        -0.767226
