19
Iteration:  1376
 C        -3.828768         0.805193        -1.115234
 C        -2.466962         0.213270        -1.544881
 C        -2.337594        -1.024255        -2.533370
 C        -2.161830        -1.179223        -1.060149
 C        -0.796115        -1.332474        -0.468436
 C        -0.390816        -0.119092         0.465677
 O         0.310365        -0.085546         1.498873
 C        -0.835041         1.256584        -0.122441
 O        -1.328638         1.066001        -1.460572
 H        -4.104739         1.675598        -1.743660
 H        -4.586294         0.030104        -0.960593
 H        -3.525040         1.156659        -0.166680
 H        -3.260875        -1.426503        -2.980517
 H        -1.404728        -0.990251        -3.100514
 H        -2.901731        -1.700047        -0.518198
 H        -0.605734        -2.166082         0.250706
 H         0.050318        -1.287980        -1.150887
 H        -1.521122         1.708206         0.637968
 H         0.141618         1.902373        -0.176109
