19
Iteration:  4606charge 0 multiplicity 1
 C        -4.032127         0.685124        -1.778701
 C        -2.595036         0.318539        -1.434157
 C        -1.780344        -0.496582        -2.413298
 C        -2.229595        -1.120792        -1.116366
 C        -1.165391        -1.393828        -0.003739
 C        -0.244227        -0.288213         0.413780
 O         0.708981        -0.365362         1.185597
 C        -0.574077         1.053228        -0.376013
 O        -1.875723         1.293215        -0.662905
 H        -4.396462        -0.152045        -2.421695
 H        -4.744986         0.895834        -1.019359
 H        -4.154917         1.535140        -2.526539
 H        -2.244560        -0.869755        -3.385198
 H        -0.674837        -0.407460        -2.558157
 H        -3.061332        -1.732066        -1.323819
 H        -1.716429        -1.689596         0.922822
 H        -0.703301        -2.331013        -0.267072
 H        -0.066384         1.873224         0.201002
 H         0.062120         0.976681        -1.291145
