19
Iteration:  1005
 C        -3.843146         0.717214        -1.315274
 C        -2.451196         0.223473        -1.508850
 C        -2.292676        -0.923767        -2.495303
 C        -2.179913        -1.169185        -0.998173
 C        -0.794254        -1.390474        -0.272903
 C        -0.374281        -0.173212         0.424637
 O         0.396176        -0.024149         1.362648
 C        -0.788047         1.181957        -0.098813
 O        -1.434572         1.170680        -1.385468
 H        -4.240731         1.513969        -2.050142
 H        -4.586062        -0.138593        -1.433466
 H        -3.865851         1.007035        -0.232835
 H        -3.262747        -1.228868        -2.877369
 H        -1.525152        -0.868777        -3.241522
 H        -2.994196        -1.768241        -0.519007
 H        -0.774184        -2.140811         0.484868
 H         0.076998        -1.662498        -0.919507
 H        -1.525482         1.630092         0.585057
 H         0.182995         1.757664        -0.094680
