19
Iteration:  4641
 C        -3.947064         0.672993        -1.588182
 C        -2.479000         0.266585        -1.462116
 C        -1.808616        -0.515616        -2.578724
 C        -2.125769        -1.150335        -1.243701
 C        -1.255801        -1.337855         0.064368
 C        -0.265240        -0.200108         0.287895
 O         0.489361        -0.375619         1.202335
 C        -0.482450         1.123755        -0.432390
 O        -1.822781         1.175290        -0.584956
 H        -4.538872        -0.201874        -1.881742
 H        -4.422885         1.017080        -0.590634
 H        -3.922864         1.467354        -2.311164
 H        -2.600553        -0.944615        -3.327229
 H        -0.768132        -0.411156        -2.879157
 H        -2.902686        -1.954899        -1.200288
 H        -1.987671        -1.114724         0.834598
 H        -0.705338        -2.213072         0.185819
 H        -0.194792         1.934948         0.336906
 H        -0.072294         1.339821        -1.427484
