19
Iteration:  3135
 C        -3.823068         0.748956        -1.981375
 C        -2.533129         0.234392        -1.410501
 C        -1.662999        -0.818722        -2.159058
 C        -2.224969        -1.199768        -0.794927
 C        -1.221698        -1.381446         0.315697
 C        -0.370982        -0.154113         0.371103
 O         0.855955        -0.269497         0.206941
 C        -1.158968         1.109941         0.327455
 O        -1.642944         1.352886        -0.972951
 H        -3.613515         1.841883        -2.017628
 H        -3.855585         0.447402        -3.020205
 H        -4.681709         0.477771        -1.366271
 H        -2.368158        -1.043787        -2.985945
 H        -0.581329        -0.785223        -2.351994
 H        -3.109942        -1.887078        -0.826730
 H        -1.791516        -1.577764         1.197631
 H        -0.653962        -2.325499         0.047245
 H        -1.967547         1.072893         1.123803
 H        -0.637081         2.009971         0.579854
