19
Iteration:  4017
 C        -3.990977         0.671609        -1.607212
 C        -2.530103         0.290425        -1.525535
 C        -1.993246        -0.625572        -2.570550
 C        -2.179971        -1.125868        -1.126540
 C        -1.140550        -1.388438         0.002909
 C        -0.297552        -0.199617         0.475375
 O         0.764971        -0.404635         0.994752
 C        -0.863167         1.221465         0.238608
 O        -1.528407         1.235959        -1.118627
 H        -4.722798        -0.157442        -1.653726
 H        -4.356611         1.294033        -0.790600
 H        -4.262527         1.404890        -2.512325
 H        -2.666954        -0.985794        -3.363325
 H        -0.935382        -0.423324        -2.790364
 H        -3.035499        -1.958005        -1.140162
 H        -1.678056        -1.790942         0.914337
 H        -0.341208        -2.135464        -0.245007
 H        -1.540386         1.321898         1.053506
 H        -0.097714         2.030277         0.025098
