19
Iteration:  1567charge 0 multiplicity 1
 C        -3.811728         0.635741        -1.000084
 C        -2.445140         0.248069        -1.474677
 C        -2.419368        -0.855804        -2.476176
 C        -2.040173        -1.144683        -0.976140
 C        -0.663672        -1.372823        -0.365267
 C        -0.356403        -0.126430         0.350721
 O         0.001347        -0.138425         1.514106
 C        -0.702848         1.221452        -0.295488
 O        -1.300990         1.159812        -1.596771
 H        -4.454757         1.054694        -1.721179
 H        -4.288081        -0.237992        -0.620853
 H        -3.790135         1.364234        -0.201519
 H        -3.369410        -1.324076        -2.719162
 H        -1.558963        -0.863205        -3.208266
 H        -2.838809        -1.623236        -0.441000
 H        -0.534680        -2.082901         0.447898
 H         0.222182        -1.614935        -1.080224
 H        -1.359758         1.935406         0.331016
 H         0.218541         1.816956        -0.463850
