19
Iteration:  4347
 C        -3.945818         0.585468        -1.925194
 C        -2.489270         0.255853        -1.428919
 C        -1.623051        -0.574790        -2.247469
 C        -2.267316        -1.183318        -1.017791
 C        -1.395114        -1.339124         0.179458
 C        -0.210218        -0.241266         0.259423
 O         0.872763        -0.550232         0.764044
 C        -0.729654         1.203000        -0.064352
 O        -1.980510         1.465030        -0.745288
 H        -4.328149        -0.383814        -2.324122
 H        -4.538247         0.947911        -1.079780
 H        -3.929600         1.313440        -2.706095
 H        -1.839335        -0.853112        -3.330070
 H        -0.547657        -0.276465        -2.137085
 H        -3.154708        -1.741524        -1.073727
 H        -2.023447        -1.005895         0.993053
 H        -1.146274        -2.419464         0.095513
 H        -0.817229         1.651231         0.911892
 H         0.159502         1.689354        -0.544479
