19
Iteration:  1974charge 0 multiplicity 1
 C        -3.891970         0.866550        -1.770544
 C        -2.502681         0.217270        -1.446345
 C        -2.025161        -0.823200        -2.321645
 C        -2.193996        -1.136084        -0.803559
 C        -0.994096        -1.494810         0.126935
 C        -0.353977        -0.202860         0.376499
 O         0.794087        -0.124827         0.799330
 C        -1.043397         1.083029         0.135480
 O        -1.552960         1.229485        -1.248867
 H        -3.609164         1.844001        -2.139913
 H        -4.460061         0.347646        -2.567399
 H        -4.554943         1.021854        -0.916835
 H        -2.652986        -1.510815        -2.851894
 H        -1.082478        -0.615444        -2.861387
 H        -3.084540        -1.782525        -0.693364
 H        -1.436030        -1.891322         1.027408
 H        -0.368287        -2.262090        -0.338719
 H        -1.950066         1.099095         0.813140
 H        -0.395307         1.992235         0.312905
