19
Iteration:  1862charge 0 multiplicity 1
 C        -3.764195         0.673761        -1.930098
 C        -2.466722         0.202449        -1.419874
 C        -1.745336        -0.871893        -2.183177
 C        -2.351020        -1.145074        -0.797265
 C        -1.317159        -1.250371         0.228767
 C        -0.305653        -0.126913         0.281943
 O         0.887301        -0.331487         0.376876
 C        -1.006749         1.199373         0.232541
 O        -1.748289         1.308121        -0.967179
 H        -3.519751         1.346666        -2.736845
 H        -4.493434        -0.042865        -2.190596
 H        -4.292285         1.268080        -1.181353
 H        -2.060392        -1.224432        -3.139871
 H        -0.655332        -0.771752        -2.205005
 H        -3.192929        -1.837014        -0.656047
 H        -1.805495        -1.353415         1.162385
 H        -0.654416        -2.138682         0.073413
 H        -1.630406         1.080969         1.173330
 H        -0.245757         1.904390         0.336540
