19
Iteration:  3013
 C        -3.953348         0.725349        -1.654838
 C        -2.524913         0.219383        -1.496387
 C        -2.183530        -0.845689        -2.409634
 C        -2.248924        -1.160039        -0.890412
 C        -0.899741        -1.373962        -0.235952
 C        -0.221296        -0.093434         0.422944
 O         0.649634        -0.166067         1.292862
 C        -0.818280         1.140401        -0.023469
 O        -1.593429         1.206422        -1.234172
 H        -4.158641         0.896198        -2.697131
 H        -4.565208        -0.099059        -1.212936
 H        -4.045130         1.721084        -1.274523
 H        -2.985747        -1.247309        -3.095341
 H        -1.182662        -0.903737        -2.815973
 H        -3.076206        -1.731744        -0.610866
 H        -0.951935        -2.109175         0.533495
 H        -0.111158        -1.798957        -0.949900
 H        -1.446383         1.447205         0.843975
 H         0.014637         1.872031        -0.038334
