19
Iteration:  3794charge 0 multiplicity 1
 C        -3.921294         0.731886        -1.275891
 C        -2.462078         0.232279        -1.487748
 C        -1.982705        -0.656944        -2.576583
 C        -2.064311        -1.110833        -1.154390
 C        -0.977577        -1.525506        -0.139846
 C        -0.330767        -0.283043         0.318616
 O         0.423590        -0.306324         1.268070
 C        -0.836331         1.165878        -0.001769
 O        -1.555063         1.337177        -1.272101
 H        -4.736773         0.222334        -1.847490
 H        -4.285871         0.651341        -0.155657
 H        -4.059946         1.767038        -1.565777
 H        -2.748695        -0.944083        -3.300333
 H        -0.962493        -0.349517        -3.044375
 H        -2.790459        -1.894683        -0.996302
 H        -1.558905        -1.787275         0.728585
 H        -0.310493        -2.224029        -0.547626
 H        -1.328304         1.528627         0.893683
 H        -0.023975         1.922250        -0.130782
