19
Iteration:   618charge 0 multiplicity 1
 C        -3.901395         0.396394        -1.687705
 C        -2.483883         0.200631        -1.525989
 C        -1.997278        -0.931400        -2.377074
 C        -2.245096        -1.158598        -0.884998
 C        -1.067477        -1.289140         0.115500
 C        -0.228944        -0.046146         0.287485
 O         0.858454        -0.209387         0.787488
 C        -0.883435         1.294670         0.163973
 O        -1.756740         1.422228        -1.119402
 H        -4.187733         1.380231        -2.172408
 H        -4.323739        -0.323459        -2.437352
 H        -4.600637         0.275027        -0.810523
 H        -2.742906        -1.395120        -3.113694
 H        -0.943649        -0.995154        -2.635106
 H        -3.204681        -1.577030        -0.698016
 H        -1.586225        -1.575409         1.130855
 H        -0.473206        -2.221212        -0.107824
 H        -1.526556         1.415688         1.069573
 H        -0.148229         2.060011         0.141690
