19
Iteration:  3865
 C        -3.887330         0.695194        -1.537423
 C        -2.466550         0.259979        -1.449401
 C        -2.006817        -0.646689        -2.462467
 C        -2.232801        -1.140047        -1.090684
 C        -1.015576        -1.480028        -0.154978
 C        -0.294421        -0.245624         0.368792
 O         0.679621        -0.388053         1.138370
 C        -0.955445         1.139476         0.114357
 O        -1.573205         1.384322        -1.210289
 H        -4.740004        -0.000052        -1.531485
 H        -4.106946         1.409057        -0.790395
 H        -3.951292         1.333393        -2.499346
 H        -2.702593        -0.757196        -3.267133
 H        -0.984525        -0.496675        -2.742246
 H        -3.128505        -1.763911        -0.811533
 H        -1.384893        -1.878898         0.802682
 H        -0.124817        -1.920205        -0.693895
 H        -1.845869         1.296702         0.843606
 H        -0.229848         1.878594         0.540441
