19
Iteration:   816charge 0 multiplicity 1
 C        -3.930792         0.440246        -0.871294
 C        -2.543252         0.187716        -1.387392
 C        -2.125586        -0.802773        -2.483949
 C        -1.997245        -1.180922        -0.985014
 C        -0.647099        -1.450554        -0.435525
 C        -0.339360        -0.026506         0.340372
 O        -0.155933         0.036522         1.533789
 C        -0.428296         1.210121        -0.510427
 O        -1.564978         1.202903        -1.489591
 H        -4.290920         1.478280        -0.988856
 H        -4.675798        -0.215261        -1.394553
 H        -3.977095         0.258402         0.308043
 H        -2.834965        -1.201810        -3.268716
 H        -1.224965        -0.342506        -2.968840
 H        -2.840492        -1.760152        -0.539948
 H        -0.530849        -2.260635         0.326287
 H         0.143827        -1.529343        -1.113434
 H        -0.459533         2.132183         0.143483
 H         0.527332         1.123950        -1.049007
