19
Iteration:  4132
 C        -4.085816         0.673107        -1.766284
 C        -2.564952         0.279168        -1.455422
 C        -1.855774        -0.456177        -2.530973
 C        -2.180391        -1.130674        -1.103342
 C        -1.156200        -1.456053         0.012893
 C        -0.149785        -0.280215         0.414238
 O         0.680292        -0.363232         1.283963
 C        -0.549031         1.080202        -0.366024
 O        -1.911039         1.312064        -0.729009
 H        -4.419131        -0.234429        -2.339013
 H        -4.652398         0.920588        -0.759706
 H        -3.899255         1.512817        -2.387771
 H        -2.432037        -0.967009        -3.335553
 H        -0.848931        -0.147676        -2.849747
 H        -2.838352        -1.983250        -1.046976
 H        -1.676822        -1.417118         1.020252
 H        -0.624550        -2.439648        -0.199904
 H        -0.179135         2.037051         0.168078
 H        -0.054057         1.057979        -1.421157
