19
Iteration:  2800charge 0 multiplicity 1
 C        -3.822453         0.696866        -0.908559
 C        -2.500058         0.090006        -1.384435
 C        -2.344894        -0.893300        -2.511617
 C        -1.987128        -1.239017        -1.010264
 C        -0.535500        -1.331343        -0.497500
 C        -0.361206        -0.115798         0.367434
 O        -0.241884        -0.088070         1.566049
 C        -0.477447         1.213738        -0.446310
 O        -1.464991         1.197090        -1.454360
 H        -4.522196         1.072299        -1.697107
 H        -4.257268         0.026600        -0.196747
 H        -3.597737         1.666240        -0.422314
 H        -3.238861        -1.092503        -3.133851
 H        -1.395357        -0.756876        -2.978158
 H        -2.648795        -1.806914        -0.394176
 H        -0.290053        -2.203280         0.049986
 H         0.145144        -1.312861        -1.402529
 H        -0.756952         1.992506         0.315269
 H         0.379051         1.645672        -1.065838
