19
Iteration:  2865
 C        -3.627162         0.687346        -0.680715
 C        -2.365069         0.158735        -1.363695
 C        -2.398726        -1.007736        -2.317068
 C        -1.890825        -1.197092        -0.952910
 C        -0.479119        -1.178677        -0.675569
 C        -0.430314        -0.031341         0.273789
 O        -0.756759        -0.138333         1.483065
 C        -0.357869         1.231728        -0.521190
 O        -1.371806         1.123021        -1.539302
 H        -4.049206         1.670490        -1.026155
 H        -4.349627        -0.112854        -0.654078
 H        -3.351907         0.767865         0.394084
 H        -3.258842        -1.501534        -2.772964
 H        -1.722192        -0.858729        -3.113453
 H        -2.367838        -1.838654        -0.256003
 H        -0.216551        -2.111865        -0.287637
 H         0.152275        -0.981518        -1.565704
 H        -0.664314         2.034883         0.179078
 H         0.623865         1.254912        -0.990861
