19
Iteration:  4799charge 0 multiplicity 1
 C        -4.032834         0.660541        -1.728731
 C        -2.624757         0.309768        -1.459602
 C        -1.766382        -0.525047        -2.438258
 C        -2.211483        -1.105449        -1.096042
 C        -1.153660        -1.413729        -0.005110
 C        -0.278009        -0.252343         0.364458
 O         0.624399        -0.356931         1.173655
 C        -0.498150         1.036955        -0.382115
 O        -1.824335         1.293498        -0.687303
 H        -4.631072        -0.262518        -1.988320
 H        -4.494878         1.104966        -0.847882
 H        -4.214173         1.410730        -2.624080
 H        -2.282997        -0.682404        -3.430886
 H        -0.750197        -0.275077        -2.477583
 H        -2.978323        -1.813201        -1.326572
 H        -1.642395        -1.563053         0.931168
 H        -0.765339        -2.389905        -0.170160
 H        -0.297485         1.695573         0.455719
 H         0.221060         1.292936        -1.173956
