19
Iteration:  3583
 C        -3.928290         0.574320        -0.946647
 C        -2.449177         0.234497        -1.413250
 C        -2.153824        -0.632072        -2.560200
 C        -2.046677        -1.203998        -1.106873
 C        -0.593948        -1.378882        -0.489844
 C        -0.398684        -0.134142         0.371722
 O        -0.214341        -0.328798         1.576824
 C        -0.425839         1.192955        -0.487470
 O        -1.551206         1.305930        -1.290355
 H        -4.687002         0.475316        -1.730471
 H        -4.082572         0.087524         0.018454
 H        -3.705141         1.645065        -0.722320
 H        -2.867994        -1.021576        -3.184641
 H        -1.171643        -0.394061        -2.920225
 H        -2.765897        -1.772391        -0.585749
 H        -0.672808        -2.157580         0.239369
 H         0.070347        -1.525871        -1.293346
 H        -0.393408         2.018188         0.322933
 H         0.640181         1.210880        -0.968335
