19
Iteration:  3357
 C        -4.019254         0.649975        -1.527464
 C        -2.568921         0.192431        -1.507733
 C        -2.061006        -0.771431        -2.549332
 C        -2.226277        -1.164209        -1.044148
 C        -0.965379        -1.339050        -0.229763
 C        -0.212112        -0.155123         0.413566
 O         0.582168        -0.347608         1.301868
 C        -0.603572         1.265810        -0.084953
 O        -1.703471         1.319953        -1.031805
 H        -3.954784         1.714915        -1.602307
 H        -4.607710         0.287487        -2.396269
 H        -4.471075         0.329035        -0.626447
 H        -2.718429        -1.203299        -3.319521
 H        -1.082128        -0.696788        -2.954657
 H        -3.062402        -1.846016        -0.879222
 H        -1.167278        -1.930234         0.677319
 H        -0.283965        -1.930853        -0.826083
 H        -0.929884         1.964709         0.678416
 H         0.280973         1.645975        -0.539336
