19
Iteration:  1242charge 0 multiplicity 1
 C        -3.865454         0.562071        -1.859582
 C        -2.461997         0.272003        -1.477143
 C        -1.646023        -0.775389        -2.187785
 C        -2.232915        -1.051846        -0.810545
 C        -1.470256        -1.324937         0.413589
 C        -0.297114        -0.219233         0.382175
 O         0.920998        -0.324479         0.212298
 C        -1.104622         1.162235         0.287148
 O        -1.601048         1.345124        -1.082927
 H        -3.946416         1.476037        -2.429108
 H        -4.218594        -0.239757        -2.522585
 H        -4.506780         0.611034        -0.964490
 H        -2.064367        -1.180116        -3.088263
 H        -0.529557        -0.724867        -2.281610
 H        -3.177852        -1.680602        -0.793523
 H        -1.941605        -1.092680         1.374657
 H        -1.128426        -2.331675         0.490177
 H        -2.009320         1.309075         0.881177
 H        -0.451004         2.059289         0.427105
