19
Iteration:   237
 C        -3.995050         0.537016        -1.422786
 C        -2.493268         0.185862        -1.388410
 C        -2.470647        -1.165128        -2.201743
 C        -2.105133        -1.128744        -0.739147
 C        -0.595058        -1.204697        -0.539090
 C        -0.313430        -0.016365         0.398078
 O         0.301282        -0.016169         1.461100
 C        -0.706317         1.364081        -0.221887
 O        -1.383265         1.092111        -1.509105
 H        -4.496643        -0.466109        -1.473169
 H        -4.315951         1.065582        -0.515457
 H        -4.239088         1.100060        -2.290875
 H        -3.404212        -1.475549        -2.542622
 H        -1.799681        -1.446544        -2.975023
 H        -2.672229        -1.638076         0.065332
 H        -0.137460        -2.124791        -0.198470
 H        -0.188517        -1.024667        -1.588928
 H        -1.229716         2.029581         0.471792
 H         0.129386         1.938630        -0.635146
