19
Iteration:  3667charge 0 multiplicity 1
 C        -3.900445         0.779119        -1.134719
 C        -2.486361         0.325258        -1.508509
 C        -2.320746        -0.829693        -2.525116
 C        -2.098295        -1.171401        -1.127542
 C        -0.578472        -1.250245        -0.527976
 C        -0.425868        -0.185148         0.486578
 O         0.153971        -0.417732         1.493838
 C        -0.867648         1.276434         0.016933
 O        -1.254009         1.138372        -1.440746
 H        -4.475220        -0.047569        -0.663655
 H        -3.905562         1.505397        -0.394094
 H        -4.550572         1.129368        -1.993478
 H        -3.099121        -1.120572        -3.198976
 H        -1.359641        -0.747190        -3.069734
 H        -2.735901        -1.817222        -0.503376
 H        -0.363019        -2.279338        -0.160244
 H         0.160696        -1.140715        -1.379091
 H        -1.668253         1.705805         0.535224
 H        -0.083634         1.973656        -0.012750
