19
Iteration:  1267charge 0 multiplicity 1
 C        -3.877250         0.668088        -1.830264
 C        -2.508426         0.196072        -1.491472
 C        -1.838816        -0.893526        -2.314284
 C        -2.231960        -1.204805        -0.876336
 C        -1.283691        -1.271593         0.189720
 C        -0.327040        -0.077044         0.331135
 O         0.828938        -0.346907         0.528564
 C        -0.914223         1.269586         0.266778
 O        -1.660437         1.298111        -0.999527
 H        -3.801176         1.633303        -2.369455
 H        -4.330431        -0.051330        -2.506572
 H        -4.465566         0.845387        -0.995867
 H        -2.253189        -1.323770        -3.264136
 H        -0.747177        -0.862268        -2.422913
 H        -3.029745        -1.896784        -0.685863
 H        -1.636014        -1.287893         1.304461
 H        -0.548768        -2.154453         0.205398
 H        -1.677390         1.487767         0.973102
 H        -0.236017         2.180756         0.142626
