19
Iteration:  1066
 C        -3.946983         0.670224        -1.491526
 C        -2.532148         0.123941        -1.458989
 C        -1.828362        -0.879744        -2.542846
 C        -2.088486        -1.201893        -1.041926
 C        -1.244843        -1.218320         0.169118
 C        -0.276983        -0.103319         0.356896
 O         0.782817        -0.286733         0.891393
 C        -0.880768         1.250085         0.021462
 O        -1.692918         1.234363        -1.188667
 H        -3.936385         1.547246        -2.055790
 H        -4.710897        -0.012533        -1.735717
 H        -4.210776         1.044834        -0.493575
 H        -2.370443        -1.520685        -3.188355
 H        -0.835893        -0.506733        -2.870181
 H        -2.960044        -1.862029        -1.022902
 H        -2.017534        -0.954330         1.010312
 H        -0.769331        -2.181584         0.363550
 H        -1.570565         1.521438         0.860152
 H        -0.274584         2.097621        -0.108731
