19
Iteration:  3970charge 0 multiplicity 1
 C        -3.757715         0.969013        -1.469540
 C        -2.494430         0.296534        -1.632172
 C        -1.918925        -0.810988        -2.500015
 C        -2.212882        -1.199865        -1.045999
 C        -1.099538        -1.591229        -0.105165
 C        -0.399618        -0.204392         0.490080
 O         0.786721        -0.144473         0.878760
 C        -1.241461         1.033752         0.235237
 O        -1.450945         1.221223        -1.136229
 H        -4.661042         0.389855        -1.658743
 H        -3.853877         1.205157        -0.420331
 H        -3.875487         1.916225        -1.926322
 H        -2.558634        -1.214235        -3.294015
 H        -0.861348        -0.600272        -2.761480
 H        -3.220973        -1.306510        -0.667261
 H        -1.337006        -2.186281         0.789178
 H        -0.365786        -2.094684        -0.650568
 H        -2.236630         0.913236         0.687678
 H        -0.703969         1.866552         0.502590
