19
Iteration:  2411charge 0 multiplicity 1
 C        -3.868133         0.710091        -1.486612
 C        -2.445442         0.149060        -1.553545
 C        -1.999389        -0.874474        -2.624305
 C        -2.166693        -1.227299        -1.014786
 C        -1.138536        -1.341837         0.072991
 C        -0.271119        -0.072178         0.396377
 O         0.796506        -0.172226         0.940639
 C        -1.064437         1.231533         0.150053
 O        -1.573496         1.205753        -1.177568
 H        -4.204339         1.356888        -2.369499
 H        -4.647844        -0.057202        -1.327370
 H        -3.745162         1.349863        -0.597007
 H        -2.727868        -1.219763        -3.407306
 H        -0.996073        -0.821467        -3.009112
 H        -3.060978        -1.857830        -0.737088
 H        -1.742002        -1.313531         1.024886
 H        -0.705424        -2.288092        -0.082653
 H        -1.821264         1.388182         0.990451
 H        -0.269363         2.060129         0.173723
