19
Iteration:  3287
 C        -4.024145         0.524775        -1.787039
 C        -2.541479         0.232977        -1.478751
 C        -1.745424        -0.527458        -2.399762
 C        -2.183563        -1.090549        -1.093703
 C        -1.229998        -1.257086         0.045726
 C        -0.255459        -0.194910         0.353819
 O         0.765320        -0.421534         1.008159
 C        -0.551930         1.156094        -0.292447
 O        -1.977822         1.287888        -0.593795
 H        -4.159275         0.913925        -2.857643
 H        -4.637283        -0.356135        -1.563732
 H        -4.300781         1.357212        -1.048270
 H        -2.328824        -0.901370        -3.263077
 H        -0.674219        -0.484664        -2.701700
 H        -2.893078        -1.963426        -1.230206
 H        -1.975502        -1.483652         0.869771
 H        -0.611228        -2.250109        -0.090339
 H        -0.441797         1.971813         0.479829
 H        -0.010895         1.242377        -1.215586
