19
Iteration:  1890charge 0 multiplicity 1
 C        -3.951003         0.651548        -1.790125
 C        -2.452424         0.331774        -1.509705
 C        -1.659529        -0.773011        -2.199729
 C        -2.180667        -1.145416        -0.794431
 C        -1.341232        -1.557715         0.414393
 C        -0.388237        -0.290260         0.436497
 O         0.840219        -0.262701         0.353536
 C        -1.033474         1.221090         0.164459
 O        -1.599679         1.440403        -1.175012
 H        -4.013684         1.208955        -2.803592
 H        -4.721801        -0.214845        -1.903933
 H        -4.459672         1.354238        -1.092440
 H        -2.013580        -1.320601        -3.106343
 H        -0.653621        -0.232939        -2.267495
 H        -3.030897        -1.770150        -0.917343
 H        -2.113012        -1.889423         1.295400
 H        -0.784974        -2.461586         0.164177
 H        -1.749547         1.456709         0.956426
 H        -0.028380         1.809398         0.304202
