19
Iteration:   584charge 0 multiplicity 1
 C        -3.980962         0.632007        -1.928545
 C        -2.594920         0.154787        -1.414585
 C        -1.749246        -0.868939        -2.209411
 C        -2.296799        -1.210266        -0.880339
 C        -1.122574        -1.354331         0.206215
 C        -0.203806        -0.116290         0.296875
 O         0.961313        -0.121755         0.633137
 C        -0.825476         1.194226        -0.000655
 O        -2.014067         1.310332        -0.891291
 H        -3.642389         1.274351        -2.814948
 H        -4.527561        -0.279570        -2.284966
 H        -4.458750         1.223725        -1.129589
 H        -2.092524        -1.429593        -3.077017
 H        -0.682243        -0.649152        -2.253807
 H        -3.025836        -1.976847        -0.777689
 H        -1.589571        -1.481058         1.288906
 H        -0.538689        -2.214180        -0.092487
 H        -1.097819         1.580932         1.004045
 H        -0.032102         1.799756        -0.408247
