19
Iteration:  4045charge 0 multiplicity 1
 C        -4.020305         0.703386        -1.698799
 C        -2.588380         0.326054        -1.488103
 C        -1.938491        -0.643699        -2.488515
 C        -2.165880        -1.088559        -1.047546
 C        -1.111355        -1.443735        -0.078899
 C        -0.256089        -0.300568         0.442486
 O         0.787649        -0.361631         1.124016
 C        -0.750398         1.126212         0.033960
 O        -1.726131         1.315950        -1.043469
 H        -4.723771        -0.061609        -2.031032
 H        -4.550934         1.178800        -0.844972
 H        -4.094461         1.438313        -2.422647
 H        -2.481119        -1.000038        -3.327485
 H        -0.862450        -0.363361        -2.683880
 H        -2.965425        -1.731098        -1.011304
 H        -1.582930        -1.882924         0.833072
 H        -0.437092        -2.260112        -0.353900
 H        -1.148408         1.580762         1.028250
 H         0.025817         1.714125        -0.401730
