19
Iteration:   297charge 0 multiplicity 1
 C        -3.917179         0.715597        -1.222946
 C        -2.497964         0.106905        -1.453214
 C        -2.154810        -0.948078        -2.474967
 C        -2.119105        -1.311528        -0.983385
 C        -0.874629        -1.386526        -0.035921
 C        -0.374855        -0.026254         0.382929
 O         0.585118         0.213639         1.114255
 C        -0.994501         1.186012        -0.104271
 O        -1.403477         1.006959        -1.485715
 H        -4.221994         0.632905        -0.180975
 H        -3.957048         1.814209        -1.458578
 H        -4.731148         0.233951        -1.879806
 H        -3.012624        -1.422622        -2.982759
 H        -1.201115        -0.536372        -2.994506
 H        -2.929001        -2.045421        -0.690814
 H        -1.281516        -1.823710         0.931227
 H        -0.016714        -1.943936        -0.353850
 H        -1.911195         1.551548         0.504386
 H        -0.247999         2.012364        -0.102380
