19
Iteration:   140
 C        -3.650458         0.420564        -0.562326
 C        -2.472393         0.025362        -1.474045
 C        -2.597466        -1.052171        -2.477979
 C        -2.004480        -1.280590        -1.083355
 C        -0.616651        -1.254625        -0.435867
 C        -0.440391         0.184008         0.383423
 O        -0.237985         0.334447         1.576193
 C        -0.518267         1.324218        -0.499949
 O        -1.225147         0.884971        -1.771558
 H        -4.655808         0.229017        -1.113906
 H        -3.665091        -0.170139         0.416642
 H        -3.556104         1.469223        -0.315881
 H        -3.523248        -1.276239        -2.856535
 H        -1.801944        -0.896072        -3.194801
 H        -2.728366        -1.732446        -0.339915
 H        -0.629341        -2.069225         0.286187
 H         0.308958        -1.399551        -1.042968
 H        -1.139533         2.190799        -0.094334
 H         0.572718         1.781179        -0.669561
