19
Iteration:  4888
 C        -3.984922         0.764183        -1.898849
 C        -2.570306         0.252933        -1.509954
 C        -1.671185        -0.654435        -2.312803
 C        -2.241460        -1.155403        -1.018759
 C        -1.263942        -1.383106         0.160784
 C        -0.246709        -0.245787         0.374584
 O         0.858024        -0.503127         0.844883
 C        -0.748610         1.156041        -0.116700
 O        -1.970315         1.378910        -0.764736
 H        -4.342682         0.354913        -2.868200
 H        -4.585534         0.514980        -1.070516
 H        -3.914521         1.957911        -2.142199
 H        -2.065343        -1.119534        -3.211161
 H        -0.571938        -0.202240        -2.294228
 H        -3.089427        -1.833266        -0.887870
 H        -1.619183        -1.426136         1.172622
 H        -0.615366        -2.291437         0.085725
 H        -0.592815         1.877366         0.733009
 H         0.098533         1.367561        -0.770753
