19
Iteration:   674charge 0 multiplicity 1
 C        -3.808368         0.798460        -1.350357
 C        -2.491787         0.062684        -1.479968
 C        -2.094666        -0.935371        -2.523532
 C        -2.098094        -1.320478        -1.065857
 C        -0.954839        -1.437588        -0.045769
 C        -0.338451        -0.040070         0.406714
 O         0.729731         0.143540         0.982553
 C        -1.115847         1.142061         0.071046
 O        -1.547307         1.108085        -1.272622
 H        -3.793849         1.737730        -1.926869
 H        -4.680490         0.223933        -1.739339
 H        -4.096420         1.261620        -0.318452
 H        -3.021936        -1.223749        -3.096486
 H        -1.163432        -0.707675        -3.174960
 H        -3.011764        -1.919633        -0.948356
 H        -1.504101        -1.652494         0.987939
 H        -0.087689        -2.234390        -0.130429
 H        -2.015639         1.248116         0.747820
 H        -0.516747         2.038521         0.242443
