19
Iteration:  1071charge 0 multiplicity 1
 C        -3.935618         0.666235        -1.521928
 C        -2.517167         0.149119        -1.479576
 C        -1.823650        -0.895917        -2.523007
 C        -2.137835        -1.212357        -1.036233
 C        -1.274042        -1.248055         0.198623
 C        -0.270373        -0.098564         0.384552
 O         0.836187        -0.263479         0.841362
 C        -0.907071         1.254081         0.063174
 O        -1.706889         1.243704        -1.175264
 H        -3.879097         1.553550        -2.259666
 H        -4.693819        -0.096190        -1.903559
 H        -4.178416         0.978451        -0.491562
 H        -2.448831        -1.431781        -3.292898
 H        -0.868300        -0.498351        -2.811404
 H        -2.988689        -1.913008        -1.132665
 H        -1.947645        -1.004324         0.970652
 H        -0.881183        -2.241410         0.460762
 H        -1.418657         1.509470         1.047414
 H        -0.176633         2.114429        -0.121768
