19
Iteration:  1701
 C        -3.976920         0.759768        -1.421728
 C        -2.588661         0.167521        -1.565363
 C        -1.843612        -0.755467        -2.476241
 C        -2.167321        -1.171986        -1.028434
 C        -1.156797        -1.369370         0.086095
 C        -0.338811        -0.127194         0.455944
 O         0.773905        -0.305390         0.973730
 C        -0.911546         1.198234        -0.006308
 O        -1.607961         1.234268        -1.288371
 H        -4.046049         1.215467        -2.389035
 H        -4.696482         0.010637        -1.131145
 H        -4.051772         1.406844        -0.629822
 H        -2.242797        -1.322760        -3.285485
 H        -0.793115        -0.494306        -2.570176
 H        -3.066295        -1.851951        -0.918202
 H        -1.634872        -1.591229         1.093211
 H        -0.352592        -2.141647        -0.135725
 H        -1.698969         1.639135         0.760314
 H        -0.075004         1.879430        -0.138151
