19
Iteration:  1407charge 0 multiplicity 1
 C        -3.628245         0.991534        -0.973447
 C        -2.450274         0.110638        -1.357184
 C        -2.481752        -0.866666        -2.390137
 C        -1.926948        -1.247306        -1.042106
 C        -0.489472        -1.317769        -0.510511
 C        -0.382756        -0.116442         0.368740
 O        -0.068787        -0.091348         1.528215
 C        -0.941012         1.166067        -0.299309
 O        -1.353086         0.932954        -1.624353
 H        -3.571877         2.058147        -1.406987
 H        -4.631933         0.614194        -1.346097
 H        -3.684691         1.156112         0.114473
 H        -3.385614        -1.369040        -2.803946
 H        -1.798545        -0.668915        -3.233842
 H        -2.567332        -1.926547        -0.540064
 H        -0.217686        -2.043820         0.220698
 H         0.292808        -1.309716        -1.191186
 H        -1.725818         1.377574         0.442547
 H        -0.177768         2.025884        -0.113993
