19
Iteration:  4672charge 0 multiplicity 1
 C        -4.069064         0.716300        -1.504121
 C        -2.603031         0.256032        -1.511148
 C        -1.662373        -0.459055        -2.455513
 C        -2.211571        -1.157297        -1.210415
 C        -1.213477        -1.475507        -0.016666
 C        -0.295227        -0.229219         0.391883
 O         0.597274        -0.313829         1.252166
 C        -0.547501         0.996292        -0.445646
 O        -1.837204         1.299595        -0.797391
 H        -4.855695         0.097562        -1.987648
 H        -4.165173         1.020259        -0.461548
 H        -3.952394         1.684794        -2.078143
 H        -1.913598        -0.848776        -3.565006
 H        -0.578895        -0.347810        -2.385303
 H        -2.891678        -2.018189        -1.271462
 H        -1.780346        -1.787472         0.942738
 H        -0.487548        -2.316726        -0.015213
 H        -0.148888         1.924596         0.122959
 H         0.013754         1.081363        -1.378474
