19
Iteration:   785charge 0 multiplicity 1
 C        -3.975837         0.593025        -1.216672
 C        -2.522775         0.129039        -1.413005
 C        -2.303271        -0.993016        -2.441100
 C        -1.972686        -1.252239        -0.970395
 C        -0.593624        -1.316983        -0.465747
 C        -0.311915        -0.042842         0.381326
 O         0.122492        -0.060980         1.537342
 C        -0.533666         1.261235        -0.349170
 O        -1.664661         1.266738        -1.322252
 H        -4.133461         1.470749        -1.865646
 H        -4.667098        -0.218939        -1.504914
 H        -4.185691         0.893710        -0.140180
 H        -3.193835        -1.354638        -2.949150
 H        -1.428611        -0.899704        -3.024288
 H        -2.761774        -1.749268        -0.407161
 H        -0.308099        -2.184940         0.155125
 H         0.235053        -1.324605        -1.241737
 H        -0.630073         2.168119         0.285405
 H         0.481665         1.406402        -0.879085
