19
Iteration:  2716charge 0 multiplicity 1
 C        -3.815919         0.980067        -1.439840
 C        -2.530530         0.177745        -1.558613
 C        -2.295229        -1.048353        -2.436343
 C        -2.144365        -1.232093        -0.937968
 C        -0.727798        -1.348771        -0.328630
 C        -0.315877        -0.132295         0.431586
 O         0.595040        -0.024512         1.245511
 C        -1.090373         1.090133         0.083674
 O        -1.480218         1.098516        -1.342776
 H        -3.664676         1.996043        -1.857583
 H        -4.668944         0.652276        -2.000504
 H        -4.024614         1.011959        -0.355594
 H        -3.040944        -1.491994        -3.048688
 H        -1.337720        -1.094508        -2.797663
 H        -2.932983        -1.673730        -0.397676
 H        -0.561991        -2.133905         0.486996
 H        -0.024360        -1.452668        -1.174151
 H        -1.924233         1.204304         0.868592
 H        -0.423572         1.991004         0.223444
