19
Iteration:  1897
 C        -3.930854         0.617992        -1.742473
 C        -2.460526         0.279407        -1.501226
 C        -1.700403        -0.744845        -2.268208
 C        -2.134090        -1.089018        -0.854832
 C        -1.357192        -1.495235         0.448752
 C        -0.387377        -0.250910         0.514120
 O         0.857892        -0.303984         0.369444
 C        -1.033716         1.152283         0.149071
 O        -1.594166         1.462843        -1.195913
 H        -4.101789         1.141415        -2.681774
 H        -4.620418        -0.250929        -1.830318
 H        -4.216071         1.358215        -0.945278
 H        -2.043372        -1.335939        -3.121300
 H        -0.702202        -0.400503        -2.225036
 H        -3.049513        -1.770979        -0.928142
 H        -2.121201        -1.848436         1.020854
 H        -0.902128        -2.442127         0.104676
 H        -1.894808         1.448166         0.759995
 H        -0.314392         1.962695         0.270500
