19
Iteration:   688
 C        -3.746596         0.794619        -1.345154
 C        -2.429597         0.128625        -1.555705
 C        -2.278368        -1.028974        -2.600831
 C        -2.083875        -1.345506        -1.094484
 C        -0.897094        -1.408838        -0.104235
 C        -0.324691        -0.029543         0.410683
 O         0.714252         0.122127         1.066034
 C        -1.234240         1.238377         0.165339
 O        -1.479171         1.133701        -1.270644
 H        -3.817078         1.550954        -2.111001
 H        -4.620684         0.176950        -1.285375
 H        -3.642413         1.238334        -0.355478
 H        -3.138028        -1.503381        -2.996271
 H        -1.423602        -1.130686        -3.259972
 H        -2.888738        -1.907381        -0.565557
 H        -1.396852        -1.895250         0.802442
 H        -0.052908        -2.218218        -0.391866
 H        -2.078291         1.302653         0.823241
 H        -0.568174         2.149189         0.255145
