19
Iteration:   883charge 0 multiplicity 1
 C        -3.733395         0.591167        -0.585812
 C        -2.507623         0.129712        -1.375836
 C        -2.238652        -0.820372        -2.494387
 C        -1.955054        -1.286188        -1.150899
 C        -0.476240        -1.273522        -0.508822
 C        -0.446182        -0.073727         0.372695
 O        -0.466811         0.035339         1.599839
 C        -0.476487         1.195905        -0.483327
 O        -1.420754         1.079543        -1.649951
 H        -4.306482         1.384491        -1.132422
 H        -4.398593        -0.274053        -0.345401
 H        -3.329618         1.049865         0.403751
 H        -3.077204        -1.339991        -2.932068
 H        -1.552181        -0.403146        -3.151803
 H        -2.781653        -1.851186        -0.740779
 H        -0.140604        -2.225531        -0.173843
 H         0.113850        -1.080801        -1.364025
 H        -0.615952         2.101788         0.141758
 H         0.449304         1.278008        -1.026822
