19
Iteration:  1734
 C        -3.969889         0.547450        -1.515931
 C        -2.479253         0.160273        -1.525341
 C        -1.891342        -0.674764        -2.568073
 C        -2.140001        -1.265422        -1.096978
 C        -1.404213        -1.192983         0.300816
 C        -0.315359        -0.125532         0.406817
 O         0.838857        -0.341111         0.756723
 C        -0.812395         1.280361         0.113551
 O        -1.591958         1.257476        -1.132069
 H        -4.083534         1.040423        -2.479749
 H        -4.570297        -0.341363        -1.661214
 H        -4.144645         1.251913        -0.791806
 H        -2.447774        -1.205276        -3.280443
 H        -0.854569        -0.426157        -2.751669
 H        -2.964528        -2.033915        -1.137177
 H        -2.228472        -0.850322         1.002290
 H        -1.106118        -2.200313         0.702378
 H        -1.274878         1.497535         1.107911
 H         0.074843         1.883548         0.064053
