19
Iteration:  1559
 C        -3.810556         0.597039        -0.927846
 C        -2.452780         0.259810        -1.488861
 C        -2.355629        -0.848465        -2.485936
 C        -2.005086        -1.106718        -1.032619
 C        -0.703178        -1.350735        -0.387483
 C        -0.398667        -0.072764         0.414017
 O        -0.021309        -0.139025         1.574040
 C        -0.630445         1.231839        -0.391207
 O        -1.357116         1.107195        -1.604001
 H        -4.600050         1.047689        -1.611737
 H        -4.262277        -0.254927        -0.373374
 H        -3.705279         1.352793        -0.134373
 H        -3.328420        -1.201610        -2.889750
 H        -1.451928        -0.963353        -3.103745
 H        -2.708596        -1.595563        -0.406337
 H        -0.788248        -2.304877         0.155509
 H         0.061629        -1.472836        -1.189325
 H        -1.066070         1.854695         0.355901
 H         0.356977         1.562609        -0.567869
