19
Iteration:  4953
 C        -3.887334         0.772970        -2.065014
 C        -2.544072         0.268456        -1.438148
 C        -1.607279        -0.615180        -2.225391
 C        -2.230973        -1.157640        -0.960535
 C        -1.312093        -1.383125         0.268669
 C        -0.250745        -0.300372         0.315088
 O         0.914187        -0.457935         0.612642
 C        -0.814341         1.145395        -0.030376
 O        -2.049853         1.332751        -0.626359
 H        -4.722867         0.085345        -2.201202
 H        -4.119607         1.526705        -1.387734
 H        -3.584334         1.233668        -3.149122
 H        -1.941414        -1.220807        -3.116740
 H        -0.465776        -0.315714        -2.488789
 H        -3.171863        -1.734770        -1.080905
 H        -2.028494        -1.320873         1.109741
 H        -0.762151        -2.324086         0.062583
 H        -0.991729         1.682787         0.936458
 H        -0.095862         1.649948        -0.664190
