19
Iteration:  4769
 C        -3.906096         0.832795        -1.707365
 C        -2.517078         0.229791        -1.409216
 C        -1.898271        -0.609437        -2.427629
 C        -2.169117        -1.181472        -1.072616
 C        -1.028905        -1.593395        -0.073414
 C        -0.383485        -0.273982         0.454597
 O         0.644158        -0.293153         1.133608
 C        -0.663371         1.060932        -0.262835
 O        -1.904928         1.435103        -0.811702
 H        -4.680676         0.174734        -2.155497
 H        -4.177998         1.288400        -0.814469
 H        -3.729259         1.539096        -2.614377
 H        -2.580983        -0.911675        -3.275440
 H        -0.832370        -0.385424        -2.672354
 H        -2.940754        -1.924847        -1.185459
 H        -1.447706        -2.141757         0.846976
 H        -0.327464        -2.446363        -0.472767
 H        -0.330806         1.927123         0.395062
 H         0.190327         1.063602        -1.036241
