19
Iteration:   889charge 0 multiplicity 1
 C        -3.735740         0.584978        -0.607170
 C        -2.493236         0.167393        -1.375691
 C        -2.273127        -0.838027        -2.450407
 C        -1.916714        -1.225435        -1.064423
 C        -0.490721        -1.272762        -0.551133
 C        -0.450573        -0.103865         0.357139
 O        -0.474385        -0.015191         1.571653
 C        -0.514940         1.259594        -0.510006
 O        -1.378996         1.057175        -1.631513
 H        -4.373252         1.269707        -1.138329
 H        -4.414754        -0.195950        -0.316226
 H        -3.398908         1.086929         0.243173
 H        -2.996170        -1.506076        -3.028608
 H        -1.461761        -0.460514        -3.160915
 H        -2.755499        -1.842952        -0.702168
 H        -0.113766        -2.231654        -0.066600
 H         0.083167        -1.016901        -1.513196
 H        -0.810642         2.105555         0.135040
 H         0.553376         1.290792        -0.913379
