19
Iteration:  1189charge 0 multiplicity 1
 C        -3.558112         0.706282        -2.051949
 C        -2.457242         0.108557        -1.389386
 C        -1.623609        -0.936025        -2.124849
 C        -2.294834        -1.260610        -0.817582
 C        -1.389127        -1.335666         0.418776
 C        -0.343008        -0.045270         0.426209
 O         0.702210        -0.286920        -0.173065
 C        -1.106534         1.321404         0.471160
 O        -1.705963         1.318467        -0.838159
 H        -3.214916         1.211173        -2.932763
 H        -4.281816        -0.040193        -2.373232
 H        -4.071990         1.322787        -1.373739
 H        -2.051227        -1.312047        -3.051891
 H        -0.499134        -0.800661        -2.044359
 H        -3.275908        -1.804054        -0.750345
 H        -2.068132        -1.346252         1.410711
 H        -0.649300        -2.181335         0.443575
 H        -1.838980         1.464181         1.236235
 H        -0.529567         2.308311         0.562277
