19
Iteration:  3613
 C        -3.937571         0.703644        -0.901656
 C        -2.469343         0.207433        -1.421767
 C        -2.115216        -0.698990        -2.648044
 C        -1.981156        -1.212937        -1.231079
 C        -0.624728        -1.514821        -0.479281
 C        -0.433594        -0.198192         0.365083
 O        -0.097568        -0.172690         1.550842
 C        -0.538553         1.150053        -0.288018
 O        -1.533246         1.324357        -1.270472
 H        -4.906408         0.292258        -1.294344
 H        -3.973477         0.783379         0.137544
 H        -3.758892         1.792189        -1.194986
 H        -2.915414        -1.270914        -3.136344
 H        -1.272811        -0.397185        -3.258499
 H        -2.768196        -1.943602        -0.905012
 H        -0.727570        -2.461907         0.102515
 H         0.148025        -1.745399        -1.268347
 H        -0.808239         1.883319         0.509916
 H         0.444315         1.442580        -0.751206
