19
Iteration:   878
 C        -3.717134         0.610302        -0.571481
 C        -2.499274         0.100239        -1.379104
 C        -2.261673        -0.817209        -2.565926
 C        -1.955154        -1.320027        -1.182007
 C        -0.498375        -1.290199        -0.498011
 C        -0.444354        -0.018216         0.400052
 O        -0.456565         0.067596         1.614110
 C        -0.455537         1.138946        -0.479990
 O        -1.460238         1.106498        -1.624147
 H        -4.203906         1.422292        -1.073131
 H        -4.319100        -0.262769        -0.399327
 H        -3.404825         0.911360         0.375788
 H        -3.224723        -1.244044        -2.981198
 H        -1.461139        -0.394353        -3.277782
 H        -2.649913        -2.017487        -0.659019
 H        -0.214716        -2.308957        -0.075043
 H         0.316526        -1.084711        -1.301578
 H        -0.523148         2.058510         0.111450
 H         0.484529         1.324416        -1.081202
