19
Iteration:  4873
 C        -4.015474         0.756951        -1.821788
 C        -2.611285         0.263642        -1.483698
 C        -1.639548        -0.535010        -2.359187
 C        -2.224846        -1.147145        -1.045293
 C        -1.340629        -1.375901         0.195881
 C        -0.254632        -0.312337         0.420331
 O         0.840651        -0.362074         0.874598
 C        -0.583792         1.073290        -0.186087
 O        -1.938415         1.265001        -0.802385
 H        -4.469056         0.386227        -2.750975
 H        -4.792757         0.605218        -1.026141
 H        -3.952232         1.765707        -1.854548
 H        -1.914794        -0.918422        -3.364966
 H        -0.614367        -0.324830        -2.227991
 H        -2.917698        -1.971634        -1.304679
 H        -2.178037        -1.486901         0.956603
 H        -0.941433        -2.380120         0.259539
 H        -0.639449         1.817910         0.575708
 H         0.212578         1.406408        -0.888947
