19
Iteration:  4785charge 0 multiplicity 1
 C        -3.983480         0.751488        -1.738985
 C        -2.526353         0.299904        -1.377968
 C        -1.823858        -0.479016        -2.442277
 C        -2.169891        -1.200508        -1.103246
 C        -1.179451        -1.569475        -0.007780
 C        -0.259309        -0.356923         0.323930
 O         0.651474        -0.247823         1.190960
 C        -0.572353         1.029004        -0.279849
 O        -1.904780         1.374899        -0.800971
 H        -4.561322        -0.152191        -1.925577
 H        -4.534166         1.348242        -0.891510
 H        -3.915149         1.409986        -2.525475
 H        -2.356184        -0.870380        -3.269650
 H        -0.800414        -0.254651        -2.744877
 H        -3.063500        -1.872112        -1.006891
 H        -1.739691        -1.862325         0.874121
 H        -0.447812        -2.273210        -0.340865
 H        -0.296289         1.781883         0.423052
 H         0.123161         1.053642        -1.135947
