19
Iteration:  2484
 C        -3.788659         0.656485        -1.877777
 C        -2.432428         0.204220        -1.441654
 C        -1.898181        -0.949541        -2.386649
 C        -2.276613        -1.164459        -0.880207
 C        -1.189460        -1.260837         0.198436
 C        -0.278932        -0.139885         0.291067
 O         0.964685        -0.233892         0.447485
 C        -1.180896         1.201614         0.414325
 O        -1.658795         1.340291        -0.955949
 H        -3.535543         1.339450        -2.702117
 H        -4.371436        -0.102949        -2.427015
 H        -4.346419         1.163928        -1.088655
 H        -2.752507        -1.310893        -3.050744
 H        -0.904164        -1.140807        -2.807289
 H        -3.208920        -1.703151        -0.619180
 H        -1.784746        -1.260840         1.157834
 H        -0.646409        -2.278146         0.200072
 H        -1.963499         0.961616         1.144745
 H        -0.632855         2.097537         0.664786
