19
Iteration:  2868charge 0 multiplicity 1
 C        -3.616567         0.698417        -0.663945
 C        -2.366351         0.114930        -1.362349
 C        -2.392367        -1.011972        -2.312343
 C        -1.922208        -1.192909        -0.991283
 C        -0.479841        -1.179695        -0.673291
 C        -0.457709        -0.026244         0.270398
 O        -0.738427        -0.126202         1.471502
 C        -0.389336         1.237457        -0.493438
 O        -1.355021         1.123465        -1.554977
 H        -3.952348         1.738176        -0.897378
 H        -4.347485        -0.117325        -0.706843
 H        -3.347438         0.800597         0.409654
 H        -3.230968        -1.448136        -2.693738
 H        -1.686450        -0.892339        -3.106473
 H        -2.384909        -1.857654        -0.232109
 H        -0.156616        -2.247995        -0.298035
 H         0.237756        -0.908353        -1.474019
 H        -0.694533         2.031967         0.143490
 H         0.698421         1.298270        -0.938246
