19
Iteration:  3056
 C        -3.808526         0.827042        -1.617815
 C        -2.468520         0.168838        -1.489513
 C        -1.945288        -0.833486        -2.418476
 C        -2.203195        -1.224659        -0.899449
 C        -1.103857        -1.351101         0.080703
 C        -0.376306        -0.144577         0.432516
 O         0.818574        -0.160544         0.757099
 C        -1.202080         1.158668         0.184857
 O        -1.471474         1.183892        -1.216028
 H        -3.993109         1.384976        -2.540229
 H        -4.628638         0.031694        -1.477100
 H        -3.964873         1.622168        -0.880491
 H        -2.628094        -1.352291        -3.104792
 H        -0.968016        -0.846854        -2.905815
 H        -3.063964        -1.767966        -0.712898
 H        -1.495168        -1.726959         1.027070
 H        -0.318752        -2.127128        -0.179717
 H        -2.224366         1.058044         0.692525
 H        -0.769681         2.175293         0.300459
