19
Iteration:  2247charge 0 multiplicity 1
 C        -3.654522         0.838037        -0.859374
 C        -2.442957         0.104545        -1.437613
 C        -2.388256        -1.037282        -2.556471
 C        -1.917468        -1.309837        -1.109074
 C        -0.518165        -1.315251        -0.382854
 C        -0.437641        -0.078426         0.377834
 O        -0.202849        -0.141066         1.571587
 C        -0.669024         1.331595        -0.382860
 O        -1.481619         1.171507        -1.545538
 H        -4.346259         1.293422        -1.558307
 H        -4.278456         0.155273        -0.224970
 H        -3.299027         1.592350        -0.178260
 H        -3.388308        -1.503695        -2.706173
 H        -1.619934        -0.834349        -3.402454
 H        -2.599756        -1.901231        -0.455167
 H        -0.303878        -2.271388         0.127712
 H         0.236372        -1.173402        -1.268681
 H        -1.275815         1.940166         0.258909
 H         0.328586         1.843719        -0.645313
