19
Iteration:  1183charge 0 multiplicity 1
 C        -3.584511         0.717183        -2.144799
 C        -2.384903         0.130865        -1.348137
 C        -1.668165        -0.978671        -2.167482
 C        -2.326609        -1.324205        -0.812663
 C        -1.420263        -1.313028         0.468945
 C        -0.343105        -0.071540         0.400653
 O         0.735436        -0.190459        -0.154025
 C        -1.063336         1.294968         0.495758
 O        -1.720701         1.284612        -0.803471
 H        -3.199258         1.349098        -3.015832
 H        -4.440584         0.053292        -2.422460
 H        -4.210546         1.486847        -1.526822
 H        -2.175607        -1.201360        -3.106945
 H        -0.605913        -0.854779        -2.046196
 H        -3.229884        -1.881915        -0.717212
 H        -1.887553        -1.274804         1.370319
 H        -0.724820        -2.145914         0.321613
 H        -1.745511         1.428461         1.418796
 H        -0.335193         2.097767         0.476259
