19
Iteration:  4213
 C        -4.013850         0.693756        -1.774689
 C        -2.606069         0.229077        -1.394782
 C        -1.823811        -0.537413        -2.484016
 C        -2.138008        -1.160972        -1.103086
 C        -1.146137        -1.395811         0.043506
 C        -0.278605        -0.187245         0.364829
 O         0.669199        -0.382529         1.150833
 C        -0.538916         1.095039        -0.234993
 O        -1.873339         1.292829        -0.813712
 H        -4.562592        -0.022425        -2.361076
 H        -4.579461         0.738586        -0.896278
 H        -4.091629         1.744302        -2.195295
 H        -2.413422        -0.989087        -3.231430
 H        -0.913260         0.022119        -2.858806
 H        -2.991264        -1.940090        -1.122570
 H        -1.736589        -1.653125         0.974873
 H        -0.510174        -2.257023        -0.094402
 H        -0.431998         1.815527         0.618996
 H         0.224443         1.169556        -1.050178
