19
Iteration:  2896
 C        -3.514012         0.806207        -0.615175
 C        -2.361259         0.113244        -1.450742
 C        -2.487770        -0.921121        -2.431529
 C        -1.875464        -1.295568        -1.077768
 C        -0.424433        -1.303978        -0.588747
 C        -0.429648        -0.004178         0.385199
 O        -0.564677        -0.097313         1.575826
 C        -0.703773         1.280329        -0.438105
 O        -1.314961         1.011814        -1.695088
 H        -3.548156         1.897749        -0.603691
 H        -4.446391         0.328941        -0.904279
 H        -3.331529         0.622763         0.456895
 H        -3.509232        -1.418885        -2.708143
 H        -1.820867        -0.656523        -3.267559
 H        -2.474811        -1.877167        -0.424902
 H        -0.178471        -2.141724        -0.033495
 H         0.305636        -1.279908        -1.435674
 H        -1.383565         1.965979         0.181399
 H         0.178285         1.853207        -0.598003
