19
Iteration:  1342
 C        -3.967069         0.633004        -1.511418
 C        -2.515022         0.261089        -1.432481
 C        -2.178013        -0.838927        -2.424500
 C        -2.230039        -1.158581        -0.878672
 C        -0.900074        -1.377180        -0.166904
 C        -0.291427        -0.149877         0.428448
 O         0.540192        -0.296030         1.305102
 C        -0.723646         1.283453        -0.127583
 O        -1.509139         1.272106        -1.388910
 H        -4.247955         1.192057        -2.443106
 H        -4.675083        -0.202168        -1.356349
 H        -4.166260         1.359728        -0.741402
 H        -2.991167        -1.266887        -3.105771
 H        -1.193694        -0.774361        -2.886827
 H        -3.017171        -1.684935        -0.349563
 H        -1.040009        -2.194187         0.550360
 H        -0.047174        -1.702879        -0.787814
 H        -1.364664         1.881006         0.546776
 H         0.100847         1.971282        -0.562927
