19
Iteration:  4093charge 0 multiplicity 1
 C        -3.874768         0.740948        -1.688902
 C        -2.497868         0.211489        -1.421785
 C        -1.814111        -0.668876        -2.464626
 C        -2.323453        -1.200869        -0.979116
 C        -1.078717        -1.453667        -0.174271
 C        -0.339965        -0.195765         0.398622
 O         0.628222        -0.344764         1.097603
 C        -0.643558         1.217186        -0.151152
 O        -1.831530         1.364320        -0.833032
 H        -4.478106         0.127846        -2.334735
 H        -4.500421         0.705725        -0.870502
 H        -4.063994         1.759584        -2.114360
 H        -2.414325        -1.156236        -3.284033
 H        -0.760002        -0.688195        -2.583572
 H        -3.369266        -1.747261        -1.020478
 H        -1.309653        -2.117258         0.674359
 H        -0.369390        -2.098403        -0.671222
 H        -0.681689         1.907264         0.718980
 H         0.249955         1.225603        -0.794430
