19
Iteration:  1216charge 0 multiplicity 1
 C        -3.769821         0.665590        -1.945852
 C        -2.424886         0.255993        -1.500769
 C        -1.481213        -0.845818        -2.073831
 C        -2.185044        -1.093920        -0.770214
 C        -1.391977        -1.340801         0.572015
 C        -0.440713        -0.199927         0.310719
 O         0.719969        -0.320872        -0.053125
 C        -1.151082         1.071605         0.331546
 O        -1.635614         1.425172        -0.986694
 H        -3.792678         1.433199        -2.765546
 H        -4.280297        -0.230740        -2.381120
 H        -4.336086         0.955428        -0.982066
 H        -1.921119        -1.305974        -2.976848
 H        -0.444433        -0.723742        -2.159187
 H        -3.130352        -1.595017        -0.773494
 H        -1.863539        -1.176055         1.480053
 H        -0.755589        -2.224472         0.647478
 H        -2.039747         1.256310         0.999013
 H        -0.454520         1.825682         0.596523
