19
Iteration:  3534charge 0 multiplicity 1
 C        -3.887286         0.690509        -1.064614
 C        -2.411469         0.222132        -1.406008
 C        -2.351001        -0.747807        -2.536189
 C        -1.997124        -1.184444        -1.030255
 C        -0.476471        -1.367137        -0.589824
 C        -0.332496        -0.151289         0.391547
 O        -0.206872        -0.257599         1.584527
 C        -0.492942         1.171702        -0.276498
 O        -1.558391         1.260294        -1.314825
 H        -4.282534         1.004213        -2.025280
 H        -4.419286        -0.127939        -0.565408
 H        -3.813657         1.576933        -0.485045
 H        -3.391725        -1.042164        -2.923893
 H        -1.445187        -0.714405        -3.253004
 H        -2.599486        -1.981637        -0.501808
 H        -0.431691        -2.434944        -0.310253
 H         0.206518        -1.084678        -1.454866
 H        -0.486106         1.990851         0.419791
 H         0.454887         1.200039        -0.896932
