19
Iteration:   169
 C        -3.609481         0.816479        -0.704308
 C        -2.485741        -0.031123        -1.391982
 C        -2.402613        -1.068697        -2.412579
 C        -1.894908        -1.343320        -1.010427
 C        -0.473288        -1.281715        -0.370313
 C        -0.458665         0.078194         0.346910
 O        -0.143026         0.216966         1.507745
 C        -0.806351         1.280640        -0.512335
 O        -1.453762         0.877938        -1.735801
 H        -4.492341         0.766110        -1.332483
 H        -3.839105         0.472873         0.311612
 H        -3.331691         1.846910        -0.587935
 H        -3.340675        -1.561730        -2.766218
 H        -1.764697        -0.817835        -3.273427
 H        -2.610665        -2.064263        -0.447617
 H        -0.139861        -2.174554         0.239504
 H         0.287085        -1.122239        -1.155894
 H        -1.540025         1.853775         0.083399
 H         0.061251         1.906693        -0.609890
