19
Iteration:  1187charge 0 multiplicity 1
 C        -3.559479         0.707570        -2.085728
 C        -2.437963         0.114908        -1.376093
 C        -1.632902        -0.950817        -2.141122
 C        -2.302222        -1.283525        -0.819559
 C        -1.400608        -1.333941         0.433466
 C        -0.337192        -0.050547         0.422533
 O         0.712272        -0.257651        -0.169395
 C        -1.091272         1.316386         0.478348
 O        -1.710603         1.308755        -0.827302
 H        -3.216301         1.233920        -2.929296
 H        -4.334882         0.013754        -2.373066
 H        -4.143606         1.385474        -1.404114
 H        -2.106525        -1.273334        -3.073786
 H        -0.579291        -0.810451        -2.027118
 H        -3.302007        -1.836734        -0.729871
 H        -2.022250        -1.317472         1.420932
 H        -0.681834        -2.128840         0.397107
 H        -1.808002         1.480559         1.308023
 H        -0.501379         2.225039         0.551754
