19
Iteration:  2202
 C        -3.731039         0.641164        -0.812029
 C        -2.420444         0.174092        -1.429735
 C        -2.466247        -0.928260        -2.469027
 C        -2.063025        -1.236398        -0.940563
 C        -0.560420        -1.285233        -0.611815
 C        -0.246260        -0.013774         0.379345
 O        -0.424591        -0.071487         1.582865
 C        -0.497966         1.304484        -0.393547
 O        -1.268226         1.027287        -1.582398
 H        -4.221858         1.317133        -1.506306
 H        -4.405943        -0.265877        -0.866798
 H        -3.731906         1.018857         0.225737
 H        -3.532486        -1.301890        -2.722715
 H        -1.738548        -0.809002        -3.272394
 H        -2.707505        -1.907800        -0.449088
 H         0.080649        -2.107233        -0.209628
 H         0.075817        -0.871465        -1.423997
 H        -1.058846         1.782493         0.411726
 H         0.318693         2.008390        -0.703523
