19
Iteration:  1354charge 0 multiplicity 1
 C        -3.920248         0.652659        -1.343595
 C        -2.456553         0.193743        -1.546015
 C        -2.241343        -0.914189        -2.470067
 C        -2.193083        -1.106000        -0.947513
 C        -0.896876        -1.308503        -0.231295
 C        -0.399808        -0.080015         0.499764
 O         0.488257        -0.273013         1.338258
 C        -0.757361         1.273709        -0.158190
 O        -1.446781         1.214469        -1.389922
 H        -4.265437         1.182398        -2.265639
 H        -4.554030        -0.222897        -1.193665
 H        -3.992382         1.252919        -0.483416
 H        -3.159146        -1.198860        -3.043080
 H        -1.297892        -1.000195        -3.000668
 H        -3.079119        -1.557164        -0.604013
 H        -0.707404        -2.136656         0.507244
 H        -0.153965        -1.428205        -1.050350
 H        -1.204527         1.846654         0.686404
 H         0.320865         1.694005        -0.201077
