19
Iteration:  4231
 C        -4.027948         0.645623        -1.827427
 C        -2.606894         0.251004        -1.426057
 C        -1.950489        -0.517501        -2.451831
 C        -2.158457        -1.090481        -1.011157
 C        -1.157654        -1.484685         0.037409
 C        -0.300102        -0.277849         0.500016
 O         0.773442        -0.394631         1.092036
 C        -0.587548         1.139901        -0.147653
 O        -1.818259         1.382761        -0.916108
 H        -4.138054        -0.036804        -2.686686
 H        -4.927209         0.570420        -1.125073
 H        -3.757672         1.646513        -2.201908
 H        -2.596285        -0.949713        -3.234321
 H        -0.924076        -0.253946        -2.667032
 H        -2.868289        -1.935658        -1.140219
 H        -1.529043        -1.959762         0.976315
 H        -0.322157        -2.066933        -0.388647
 H        -0.796998         1.913505         0.623084
 H         0.228735         1.304411        -0.869839
