19
Iteration:   715
 C        -3.871113         0.735123        -1.353518
 C        -2.447246         0.231758        -1.526221
 C        -2.221656        -1.008365        -2.412517
 C        -2.149212        -1.180427        -0.907782
 C        -0.773722        -1.239967        -0.317745
 C        -0.382087        -0.046093         0.491057
 O         0.626394        -0.019691         1.166802
 C        -1.198164         1.163298         0.046126
 O        -1.351075         1.015403        -1.402683
 H        -4.268152         1.134538        -2.333342
 H        -4.546819        -0.089256        -1.014683
 H        -3.967768         1.605114        -0.654991
 H        -3.098293        -1.372377        -3.007105
 H        -1.248190        -1.057919        -2.998413
 H        -2.883617        -1.624614        -0.251029
 H        -0.656547        -2.210341         0.147322
 H        -0.064365        -1.311757        -1.082105
 H        -2.164189         1.047709         0.610450
 H        -0.786744         2.117908         0.282196
