19
Iteration:  2558charge 0 multiplicity 1
 C        -3.841345         0.631892        -1.900813
 C        -2.458300         0.195022        -1.412057
 C        -1.730738        -0.844446        -2.250984
 C        -2.235081        -1.112129        -0.845128
 C        -1.255267        -1.322225         0.335972
 C        -0.340079        -0.172683         0.348394
 O         0.908340        -0.318086         0.351576
 C        -1.086789         1.138578         0.242087
 O        -1.725024         1.474147        -0.997178
 H        -3.733898         1.560563        -2.439900
 H        -4.264149        -0.135927        -2.623022
 H        -4.617445         0.675794        -1.133788
 H        -2.309065        -1.249450        -3.154620
 H        -0.645043        -0.832108        -2.479979
 H        -3.137949        -1.704555        -1.027521
 H        -1.775382        -1.423958         1.261199
 H        -0.644935        -2.290422         0.270151
 H        -1.858537         0.923899         1.036149
 H        -0.377113         1.853828         0.558209
