19
Iteration:  4699
 C        -3.950863         0.630092        -1.651639
 C        -2.563538         0.314525        -1.414982
 C        -1.861864        -0.549840        -2.492430
 C        -2.150949        -1.105498        -1.056624
 C        -1.130527        -1.472089        -0.070181
 C        -0.369957        -0.280424         0.410602
 O         0.558139        -0.335201         1.181232
 C        -0.551715         1.026618        -0.306607
 O        -1.791565         1.422677        -0.817283
 H        -4.437045         0.044968        -2.438909
 H        -4.449534         0.701674        -0.619293
 H        -3.953931         1.617385        -2.112654
 H        -2.503454        -0.987446        -3.147207
 H        -0.916783        -0.241821        -2.955055
 H        -2.926065        -1.922035        -1.043702
 H        -1.552551        -1.945635         0.782768
 H        -0.388796        -2.226612        -0.279794
 H        -0.155173         1.745065         0.358564
 H         0.147588         1.092454        -1.203082
