19
Iteration:   608
 C        -3.900359         0.412119        -1.826799
 C        -2.392320         0.211200        -1.436129
 C        -1.992888        -0.909519        -2.358152
 C        -2.293273        -1.150575        -0.855945
 C        -1.105670        -1.364457         0.128681
 C        -0.245843        -0.094149         0.254173
 O         0.877047        -0.144882         0.742007
 C        -0.875584         1.283992         0.083892
 O        -1.825862         1.394660        -0.982472
 H        -3.897780         1.361549        -2.376210
 H        -4.215150        -0.437972        -2.450711
 H        -4.406679         0.425323        -0.815188
 H        -2.769896        -1.233527        -3.163138
 H        -0.997809        -0.898903        -2.828365
 H        -3.146321        -1.709443        -0.509849
 H        -1.537281        -1.226439         1.226253
 H        -0.446013        -2.328924         0.019389
 H        -1.412032         1.409143         1.042884
 H        -0.125235         2.023525        -0.020365
