19
Iteration:  3579charge 0 multiplicity 1
 C        -3.937349         0.548560        -0.955654
 C        -2.494037         0.237798        -1.393787
 C        -2.156160        -0.656305        -2.558910
 C        -2.027850        -1.180067        -1.120733
 C        -0.614645        -1.373397        -0.498296
 C        -0.389560        -0.168271         0.354265
 O        -0.219486        -0.315004         1.595976
 C        -0.381400         1.237258        -0.445512
 O        -1.529444         1.314100        -1.294110
 H        -4.726489         0.512019        -1.733029
 H        -4.161378         0.023509        -0.052858
 H        -3.778192         1.623351        -0.740957
 H        -3.043551        -1.006343        -3.217085
 H        -1.179960        -0.561113        -3.062514
 H        -2.874391        -1.783725        -0.618505
 H        -0.545242        -2.202014         0.263758
 H         0.112795        -1.464950        -1.355636
 H        -0.252235         2.030406         0.261898
 H         0.603275         1.130347        -0.979850
