19
Iteration:  4842charge 0 multiplicity 1
 C        -3.926564         0.595255        -1.685468
 C        -2.464178         0.295568        -1.470129
 C        -1.690110        -0.485690        -2.472311
 C        -2.122888        -1.139425        -1.137670
 C        -1.363799        -1.297858         0.154703
 C        -0.334569        -0.281020         0.312859
 O         0.677729        -0.446420         1.029551
 C        -0.520894         1.111829        -0.397474
 O        -1.975731         1.295663        -0.620387
 H        -4.496055         0.090302        -2.503613
 H        -4.382931         0.526067        -0.695360
 H        -3.963792         1.679616        -1.995846
 H        -2.296075        -0.863567        -3.341071
 H        -0.623914        -0.409615        -2.556405
 H        -2.876045        -1.950239        -1.099166
 H        -2.188227        -1.047438         0.800223
 H        -1.011084        -2.216740         0.575366
 H        -0.151770         1.975095         0.135494
 H         0.015385         1.072517        -1.341686
