19
Iteration:   760charge 0 multiplicity 1
 C        -3.926932         0.688710        -1.459451
 C        -2.557025         0.120431        -1.414761
 C        -2.420388        -1.041008        -2.419280
 C        -1.985217        -1.249978        -0.973040
 C        -0.584972        -1.257407        -0.419791
 C        -0.188603        -0.021253         0.404648
 O         0.334007        -0.153396         1.494618
 C        -0.744230         1.286441        -0.214483
 O        -1.665579         1.237414        -1.281549
 H        -4.036265         1.146379        -2.467728
 H        -4.727398        -0.077685        -1.286057
 H        -3.968333         1.544056        -0.646336
 H        -3.412617        -1.532628        -2.612743
 H        -1.626422        -1.285726        -3.270273
 H        -2.733993        -1.838466        -0.426007
 H        -0.317090        -2.092891         0.266688
 H         0.252669        -1.271323        -1.034964
 H        -1.193963         1.882871         0.666839
 H         0.135457         1.904514        -0.474042
