19
Iteration:  4297charge 0 multiplicity 1
 C        -3.883984         0.712470        -1.787494
 C        -2.533664         0.225336        -1.470653
 C        -1.819089        -0.638802        -2.398659
 C        -2.232273        -1.221095        -1.092606
 C        -1.218577        -1.427157         0.130240
 C        -0.322834        -0.197674         0.409162
 O         0.809701        -0.399767         0.844874
 C        -0.721557         1.173674         0.065540
 O        -1.890066         1.377442        -0.890700
 H        -4.504414        -0.090591        -2.228759
 H        -4.267094         1.290076        -0.854038
 H        -3.665755         1.446363        -2.643561
 H        -2.227477        -0.916568        -3.315846
 H        -0.724356        -0.482651        -2.506728
 H        -2.935155        -2.113117        -1.232290
 H        -2.039487        -1.345789         0.883081
 H        -0.696768        -2.392902         0.017661
 H        -0.904787         1.867158         0.951171
 H         0.217946         1.603827        -0.436508
