19
Iteration:  4654
 C        -3.968641         0.745475        -1.532311
 C        -2.574922         0.261485        -1.482436
 C        -1.708600        -0.566870        -2.520219
 C        -2.105387        -1.198711        -1.184215
 C        -1.279515        -1.312588        -0.010810
 C        -0.230859        -0.251744         0.265255
 O         0.508755        -0.334612         1.240398
 C        -0.452447         1.081371        -0.435328
 O        -1.914512         1.205463        -0.666105
 H        -4.631257        -0.043151        -1.864131
 H        -4.206857         1.079033        -0.422372
 H        -4.274651         1.548817        -2.123391
 H        -2.127261        -0.876085        -3.463991
 H        -0.729794        -0.125835        -2.724911
 H        -2.925882        -1.934203        -1.449354
 H        -1.895336        -1.392504         0.855794
 H        -0.800667        -2.284362         0.028034
 H        -0.221758         1.938909         0.203743
 H         0.326418         1.081897        -1.244908
