19
Iteration:  3826charge 0 multiplicity 1
 C        -4.003771         0.689897        -1.350967
 C        -2.606617         0.254547        -1.535276
 C        -1.948528        -0.620878        -2.698811
 C        -2.136401        -1.166888        -1.245286
 C        -1.088331        -1.337521        -0.117879
 C        -0.330977        -0.213454         0.492705
 O         0.630995        -0.333182         1.274889
 C        -0.743389         1.145231         0.076855
 O        -1.569096         1.214610        -1.195605
 H        -4.713738        -0.150819        -1.420548
 H        -4.108399         1.137297        -0.256607
 H        -4.174299         1.524542        -1.994365
 H        -2.575367        -0.830866        -3.563841
 H        -0.863053        -0.284581        -2.926236
 H        -2.885643        -1.937016        -1.263667
 H        -1.692846        -1.789607         0.701013
 H        -0.461323        -2.183189        -0.410806
 H        -1.149811         1.650361         0.897631
 H         0.120772         1.777680        -0.323707
