19
Iteration:  1942
 C        -3.870200         0.753904        -1.675159
 C        -2.506020         0.143422        -1.485868
 C        -1.847409        -0.927405        -2.453253
 C        -2.341065        -1.312292        -1.063682
 C        -1.295532        -1.225609         0.101483
 C        -0.267910        -0.067652         0.458919
 O         0.903078        -0.202316         0.625923
 C        -0.971195         1.247494         0.321226
 O        -1.568234         1.187684        -1.066699
 H        -3.857964         1.637667        -2.352566
 H        -4.646557         0.121329        -2.220337
 H        -4.273595         1.180745        -0.729922
 H        -2.480235        -1.312910        -3.250567
 H        -0.745120        -0.843632        -2.534489
 H        -3.266228        -1.925941        -0.959113
 H        -1.925556        -1.205368         0.934659
 H        -0.737359        -2.145649         0.244544
 H        -1.726375         1.239961         1.149748
 H        -0.301727         2.174903         0.472988
