19
Iteration:  3161charge 0 multiplicity 1
 C        -3.828944         0.623114        -2.132908
 C        -2.568366         0.321269        -1.504256
 C        -1.700835        -0.814687        -2.189375
 C        -2.356546        -1.033785        -0.815207
 C        -1.266046        -1.366050         0.350010
 C        -0.217244        -0.249387         0.302848
 O         0.985200        -0.264327         0.270813
 C        -1.022711         1.035600         0.319075
 O        -1.816479         1.408869        -0.778740
 H        -3.963142         1.702728        -2.284737
 H        -3.950036         0.153104        -3.100350
 H        -4.430656         0.147085        -1.350950
 H        -1.990964        -1.367721        -3.078418
 H        -0.628326        -0.694603        -2.038003
 H        -3.275032        -1.772559        -0.903097
 H        -1.787891        -1.250643         1.336407
 H        -1.106453        -2.373893         0.120682
 H        -1.580457         1.090509         1.249587
 H        -0.262862         1.901913         0.362084
