19
Iteration:  3220charge 0 multiplicity 1
 C        -3.879359         0.695004        -1.996703
 C        -2.565698         0.214617        -1.413010
 C        -1.532129        -0.615529        -2.256656
 C        -2.159411        -1.130512        -1.017639
 C        -1.365710        -1.400621         0.330080
 C        -0.326401        -0.213221         0.353398
 O         0.867206        -0.362150         0.489048
 C        -0.754780         1.204361        -0.099690
 O        -2.071010         1.245138        -0.605027
 H        -3.852364         1.568566        -2.664671
 H        -4.583992        -0.137489        -2.299221
 H        -4.357865         1.141871        -1.087440
 H        -1.849531        -1.064584        -3.233050
 H        -0.454662        -0.561503        -2.167787
 H        -2.926436        -1.818597        -0.995556
 H        -2.042737        -1.238380         1.206676
 H        -0.805147        -2.389326         0.482699
 H        -0.659514         1.849504         0.810937
 H        -0.025127         1.501275        -0.832146
