19
Iteration:  4290charge 0 multiplicity 1
 C        -3.823394         0.727510        -1.727693
 C        -2.476278         0.214575        -1.454335
 C        -1.779309        -0.668165        -2.412015
 C        -2.253305        -1.274459        -1.049743
 C        -1.223447        -1.391844         0.043136
 C        -0.324643        -0.173485         0.339539
 O         0.751745        -0.406908         0.871619
 C        -0.786069         1.221548         0.003045
 O        -1.867600         1.369746        -0.857715
 H        -4.520212         0.063201        -2.187287
 H        -4.356152         1.188406        -0.999555
 H        -3.800489         1.485776        -2.523323
 H        -2.294088        -0.827975        -3.387855
 H        -0.709795        -0.606986        -2.508094
 H        -3.057748        -2.025762        -1.068324
 H        -1.798151        -1.483317         1.009880
 H        -0.705021        -2.319197         0.061701
 H        -0.880900         1.737843         0.971648
 H         0.157649         1.544614        -0.329129
