19
Iteration:  3641charge 0 multiplicity 1
 C        -3.805774         0.612137        -1.068317
 C        -2.462564         0.271524        -1.451959
 C        -2.289865        -0.631900        -2.622068
 C        -2.090955        -1.152359        -1.224520
 C        -0.669401        -1.294498        -0.445219
 C        -0.360459        -0.154843         0.467015
 O         0.061532        -0.304064         1.607227
 C        -0.679792         1.162728        -0.146236
 O        -1.429971         1.158903        -1.383286
 H        -4.505978        -0.203379        -0.943721
 H        -3.876303         1.212043        -0.079908
 H        -4.166844         1.296699        -1.803187
 H        -3.232324        -1.108783        -3.056237
 H        -1.534845        -0.427151        -3.391163
 H        -2.833941        -1.926832        -0.931539
 H        -0.584649        -2.278217         0.006167
 H         0.027940        -1.447529        -1.260231
 H        -1.160594         1.893098         0.511625
 H         0.246203         1.588822        -0.566854
