19
Iteration:  1336charge 0 multiplicity 1
 C        -3.980968         0.690777        -1.570666
 C        -2.554669         0.245498        -1.406156
 C        -2.156468        -0.820340        -2.357070
 C        -2.223077        -1.162633        -0.888997
 C        -0.895687        -1.399963        -0.153558
 C        -0.234106        -0.167323         0.384828
 O         0.575694        -0.277266         1.299269
 C        -0.724486         1.276856        -0.142545
 O        -1.554944         1.277138        -1.371392
 H        -4.258143         1.059423        -2.556369
 H        -4.645447        -0.179310        -1.557346
 H        -4.431071         1.414711        -0.820087
 H        -2.780874        -1.258216        -3.079569
 H        -1.156054        -0.758754        -2.791246
 H        -3.040340        -1.732142        -0.424959
 H        -1.204276        -2.170585         0.628830
 H        -0.182242        -2.034770        -0.778098
 H        -1.280706         1.795091         0.665201
 H         0.073408         1.947614        -0.357567
