19
Iteration:  4548charge 0 multiplicity 1
 C        -3.881550         0.682790        -1.829748
 C        -2.467998         0.237223        -1.481716
 C        -1.815286        -0.718090        -2.441096
 C        -2.295207        -1.168597        -1.096095
 C        -1.275255        -1.348405         0.053823
 C        -0.307574        -0.211293         0.311728
 O         0.759023        -0.377552         0.889258
 C        -0.673864         1.205640         0.000592
 O        -1.868614         1.346482        -0.691949
 H        -4.325727        -0.030132        -2.505804
 H        -4.429453         0.783832        -0.920978
 H        -3.628458         1.655284        -2.303126
 H        -2.424889        -0.854243        -3.287562
 H        -0.772427        -0.731710        -2.584722
 H        -3.162902        -1.830221        -1.065595
 H        -1.602651        -1.572680         1.098786
 H        -0.592233        -2.278586        -0.029039
 H        -0.735996         1.657698         0.951893
 H         0.209669         1.579584        -0.550892
