19
Iteration:  1262
 C        -3.871506         0.632789        -1.842363
 C        -2.466118         0.231634        -1.468350
 C        -1.803194        -0.875642        -2.298207
 C        -2.268355        -1.181741        -0.876833
 C        -1.270589        -1.245517         0.260620
 C        -0.342971        -0.066357         0.313727
 O         0.821203        -0.364759         0.462294
 C        -0.940661         1.227806         0.260722
 O        -1.629014         1.293022        -1.004475
 H        -3.883914         1.557122        -2.425495
 H        -4.369672        -0.052562        -2.560631
 H        -4.577762         0.731328        -0.918241
 H        -2.185553        -1.360388        -3.169764
 H        -0.712153        -0.710233        -2.406476
 H        -3.117378        -1.909545        -0.733281
 H        -1.774804        -1.223217         1.197542
 H        -0.633675        -2.082249         0.254362
 H        -1.701838         1.423732         1.101046
 H        -0.359381         2.129575         0.289937
