19
Iteration:  2949
 C        -3.743999         0.748162        -0.999903
 C        -2.426800         0.139179        -1.485175
 C        -2.347228        -0.944283        -2.544857
 C        -2.096003        -1.235242        -1.008095
 C        -0.652829        -1.282006        -0.527396
 C        -0.398026        -0.084212         0.455775
 O         0.025250        -0.081693         1.584928
 C        -0.718866         1.240420        -0.242279
 O        -1.389246         1.063742        -1.506704
 H        -3.756651         1.640388        -1.613618
 H        -4.663560         0.239683        -1.324774
 H        -3.800757         1.054542         0.045308
 H        -3.349917        -1.348367        -2.866895
 H        -1.381922        -0.944985        -3.009204
 H        -2.808044        -1.844542        -0.530059
 H        -0.337843        -2.193350        -0.123534
 H        -0.042695        -1.057129        -1.445249
 H        -1.320867         1.859230         0.419527
 H         0.067572         1.923966        -0.414323
