19
Iteration:   996
 C        -3.846761         0.793227        -1.314945
 C        -2.491497         0.169272        -1.503782
 C        -2.363531        -0.941456        -2.462410
 C        -2.101805        -1.225346        -0.950818
 C        -0.692154        -1.345051        -0.358766
 C        -0.342445        -0.102360         0.420703
 O         0.336910        -0.126531         1.448681
 C        -0.855043         1.243594        -0.142856
 O        -1.413623         1.146891        -1.427239
 H        -3.967217         1.669259        -2.056790
 H        -4.596167        -0.059569        -1.401016
 H        -3.958343         1.250243        -0.303544
 H        -3.353671        -1.340444        -2.838487
 H        -1.513694        -1.022016        -3.122382
 H        -2.937133        -1.695501        -0.412812
 H        -0.637156        -2.233728         0.324328
 H         0.084349        -1.514853        -1.189589
 H        -1.465856         1.626885         0.671688
 H         0.077911         1.923502        -0.098267
