19
Iteration:  4036charge 0 multiplicity 1
 C        -4.078705         0.722455        -1.682515
 C        -2.515487         0.235866        -1.492239
 C        -1.932253        -0.584918        -2.539928
 C        -2.242107        -1.136325        -1.098308
 C        -1.126705        -1.387554        -0.027774
 C        -0.226046        -0.267075         0.532511
 O         0.850020        -0.386688         1.103882
 C        -0.832687         1.147621         0.049058
 O        -1.665971         1.303029        -1.071898
 H        -4.579089        -0.218585        -1.902574
 H        -4.503298         1.179747        -0.840267
 H        -4.144935         1.366137        -2.527043
 H        -2.558546        -1.047584        -3.240237
 H        -0.936248        -0.153026        -2.873573
 H        -3.140760        -1.757815        -0.895889
 H        -1.760017        -1.883534         0.707768
 H        -0.522463        -2.099222        -0.495437
 H        -1.281816         1.674134         0.974481
 H         0.128203         1.547983        -0.141087
