19
Iteration:  1003charge 0 multiplicity 1
 C        -3.848033         0.737449        -1.322500
 C        -2.461758         0.211931        -1.508194
 C        -2.314256        -0.929572        -2.490659
 C        -2.167678        -1.183644        -0.985606
 C        -0.761383        -1.375784        -0.291442
 C        -0.374855        -0.171361         0.415825
 O         0.384656        -0.044005         1.385338
 C        -0.794133         1.205882        -0.115515
 O        -1.432082         1.163531        -1.391599
 H        -4.170112         1.509666        -2.021520
 H        -4.540442        -0.096811        -1.418892
 H        -3.851576         1.031576        -0.255480
 H        -3.250331        -1.234500        -2.819384
 H        -1.518871        -0.889167        -3.240193
 H        -2.988445        -1.747517        -0.493910
 H        -0.721827        -2.133173         0.434678
 H         0.056791        -1.625696        -0.936452
 H        -1.532858         1.633020         0.627539
 H         0.129705         1.737904        -0.039670
