19
Iteration:   189
 C        -3.776563         0.896745        -0.920303
 C        -2.543625         0.011287        -1.441777
 C        -2.351768        -1.221088        -2.265562
 C        -1.912151        -1.253282        -0.884842
 C        -0.388546        -1.214377        -0.495054
 C        -0.352868         0.041433         0.350916
 O        -0.048550         0.020718         1.529058
 C        -0.880902         1.270363        -0.435761
 O        -1.502887         1.031141        -1.708095
 H        -4.641235         0.765041        -1.522078
 H        -3.939991         0.764090         0.139869
 H        -3.408469         1.944509        -0.966997
 H        -3.091001        -2.032918        -2.609523
 H        -1.587574        -1.139469        -3.059831
 H        -2.509826        -1.835051        -0.159285
 H        -0.208382        -2.048057         0.231524
 H         0.326613        -1.370865        -1.282205
 H        -1.456115         1.996454         0.081423
 H        -0.016429         1.784538        -0.724889
