19
Iteration:  1186
 C        -3.563359         0.708462        -2.103252
 C        -2.424256         0.118972        -1.368109
 C        -1.639106        -0.958626        -2.149405
 C        -2.307905        -1.295940        -0.819068
 C        -1.407186        -1.330790         0.444003
 C        -0.336264        -0.055052         0.418397
 O         0.718098        -0.240378        -0.166225
 C        -1.082452         1.312981         0.482178
 O        -1.713277         1.302729        -0.821223
 H        -3.211782         1.261997        -2.946367
 H        -4.367987         0.032814        -2.379884
 H        -4.179297         1.423673        -1.424701
 H        -2.132136        -1.252724        -3.085434
 H        -0.618926        -0.819826        -2.024848
 H        -3.295003        -1.850838        -0.722574
 H        -1.980482        -1.303388         1.401306
 H        -0.701238        -2.111596         0.372430
 H        -1.796505         1.477341         1.350791
 H        -0.475997         2.174563         0.537658
