19
Iteration:  1268
 C        -3.876981         0.676397        -1.830867
 C        -2.514868         0.186519        -1.494061
 C        -1.841539        -0.896631        -2.317353
 C        -2.229689        -1.209394        -0.878683
 C        -1.281316        -1.276502         0.180515
 C        -0.323714        -0.084141         0.335829
 O         0.834469        -0.342008         0.543000
 C        -0.911205         1.284051         0.263556
 O        -1.667989         1.299040        -1.001211
 H        -3.781206         1.651567        -2.357464
 H        -4.328564        -0.059723        -2.493855
 H        -4.466354         0.873352        -0.977818
 H        -2.283726        -1.314413        -3.265001
 H        -0.772380        -0.885617        -2.423991
 H        -3.023466        -1.881652        -0.689685
 H        -1.624417        -1.305013         1.294735
 H        -0.543068        -2.167166         0.182853
 H        -1.679369         1.494852         0.983057
 H        -0.215812         2.149225         0.120266
