19
Iteration:  2598charge 0 multiplicity 1
 C        -3.947784         0.565022        -1.654988
 C        -2.523801         0.198319        -1.441438
 C        -1.604631        -0.735281        -2.432869
 C        -2.244704        -1.236929        -1.065768
 C        -1.374575        -1.233682         0.244181
 C        -0.391326        -0.107618         0.417516
 O         0.856975        -0.304273         0.470838
 C        -0.950070         1.231483         0.265829
 O        -1.601031         1.256944        -1.007402
 H        -4.115938         0.966892        -2.667706
 H        -4.568310        -0.337311        -1.643335
 H        -4.224488         1.268746        -0.837187
 H        -2.025236        -1.166058        -3.357947
 H        -0.634750        -0.366458        -2.502059
 H        -2.969437        -1.983937        -0.888482
 H        -2.171835        -1.165376         1.072530
 H        -0.805356        -2.109696         0.315367
 H        -1.693947         1.466218         1.030831
 H        -0.243048         2.039535         0.218647
