19
Iteration:  1408charge 0 multiplicity 1
 C        -3.626985         0.992040        -0.970787
 C        -2.458037         0.103876        -1.353389
 C        -2.488619        -0.875628        -2.378435
 C        -1.913593        -1.243095        -1.047967
 C        -0.477523        -1.313155        -0.516267
 C        -0.395467        -0.110211         0.366998
 O        -0.082702        -0.094578         1.526213
 C        -0.927069         1.167149        -0.298227
 O        -1.349220         0.933577        -1.625176
 H        -3.561668         2.055649        -1.383260
 H        -4.635699         0.662310        -1.333583
 H        -3.702316         1.142057         0.091145
 H        -3.377439        -1.361501        -2.772426
 H        -1.817210        -0.676477        -3.234061
 H        -2.561402        -1.909169        -0.569353
 H        -0.220532        -2.089119         0.223237
 H         0.296426        -1.318120        -1.217850
 H        -1.737468         1.402315         0.432160
 H        -0.148546         2.036333        -0.119615
