19
Iteration:    67charge 0 multiplicity 1
 C        -3.929088         0.679457        -1.136286
 C        -2.515220         0.074399        -1.277719
 C        -2.322899        -1.080330        -2.202539
 C        -1.956849        -1.332732        -0.781285
 C        -0.440556        -1.291226        -0.531311
 C        -0.238867        -0.009810         0.205304
 O        -0.246137         0.116607         1.458831
 C        -0.431953         1.274148        -0.588096
 O        -1.609256         1.150556        -1.385877
 H        -4.563470         0.138460        -0.455257
 H        -3.751733         1.615291        -0.651436
 H        -4.413634         0.788129        -2.166470
 H        -3.277091        -1.499495        -2.497628
 H        -1.527162        -1.075753        -3.010713
 H        -2.469470        -2.041495        -0.262076
 H        -0.225313        -2.014325         0.224700
 H         0.209609        -1.432887        -1.399967
 H        -0.498470         2.019604         0.172327
 H         0.388370         1.501035        -1.209253
