19
Iteration:  1553charge 0 multiplicity 1
 C        -3.833282         0.620876        -0.850742
 C        -2.450485         0.217790        -1.502431
 C        -2.308347        -0.869705        -2.488957
 C        -2.041896        -1.102699        -1.067431
 C        -0.696636        -1.321992        -0.434419
 C        -0.429789        -0.081334         0.457803
 O        -0.039150        -0.118721         1.617461
 C        -0.566773         1.226336        -0.425205
 O        -1.391540         1.095847        -1.602729
 H        -4.538598         0.940104        -1.622260
 H        -4.211734        -0.277429        -0.342041
 H        -3.571808         1.368513        -0.074577
 H        -3.164891        -1.205317        -3.050609
 H        -1.472920        -0.861970        -3.161670
 H        -2.848455        -1.625887        -0.463730
 H        -0.844434        -2.319721         0.021635
 H         0.060905        -1.360772        -1.215422
 H        -0.932386         1.989916         0.360893
 H         0.514533         1.482101        -0.790351
