19
Iteration:  4467
 C        -3.793811         0.662294        -1.954960
 C        -2.483788         0.278543        -1.453123
 C        -1.447480        -0.611437        -2.237209
 C        -2.255225        -1.123885        -0.998160
 C        -1.438834        -1.394773         0.259552
 C        -0.385926        -0.253953         0.366753
 O         0.817739        -0.477940         0.480881
 C        -0.729369         1.162708        -0.054290
 O        -2.107553         1.417702        -0.593306
 H        -4.214615        -0.325726        -2.270079
 H        -4.364565         0.943476        -1.019164
 H        -3.847283         1.396663        -2.703028
 H        -1.741171        -1.003793        -3.233581
 H        -0.284983        -0.618051        -1.991700
 H        -3.106833        -1.794297        -1.087147
 H        -2.048601        -1.152916         1.137901
 H        -0.723132        -2.272440         0.158934
 H        -0.388882         1.861011         0.713491
 H        -0.056602         1.328523        -0.884562
