19
Iteration:  4340
 C        -3.930120         0.577088        -1.947685
 C        -2.574910         0.308987        -1.472602
 C        -1.650154        -0.529903        -2.278224
 C        -2.234843        -1.106791        -1.006390
 C        -1.352997        -1.306190         0.175712
 C        -0.213693        -0.344903         0.286780
 O         0.888570        -0.523150         0.796967
 C        -0.717199         1.149628        -0.040565
 O        -1.982929         1.410405        -0.799761
 H        -4.556990        -0.259203        -2.290038
 H        -4.496169         1.014185        -1.016379
 H        -4.221687         1.303710        -2.756913
 H        -1.873136        -0.986910        -3.192290
 H        -0.574954        -0.257677        -2.247271
 H        -3.122850        -1.810479        -1.042092
 H        -1.807707        -1.040223         1.180609
 H        -0.924548        -2.352296         0.369582
 H        -0.841495         1.526661         0.999779
 H         0.202441         1.719516        -0.403444
