19
Iteration:  4477charge 0 multiplicity 1
 C        -3.891616         0.639358        -1.917881
 C        -2.410377         0.279198        -1.423945
 C        -1.434202        -0.555921        -2.212718
 C        -2.255400        -1.132484        -0.948523
 C        -1.415986        -1.347113         0.260732
 C        -0.405724        -0.274998         0.287645
 O         0.776094        -0.456082         0.510699
 C        -0.773069         1.139291        -0.092153
 O        -1.989941         1.382566        -0.645464
 H        -4.486753        -0.242728        -2.312298
 H        -4.449780         1.132296        -1.084109
 H        -3.792583         1.362247        -2.703464
 H        -1.693873        -0.996924        -3.196264
 H        -0.268275        -0.363572        -2.082634
 H        -3.026646        -1.840944        -1.174735
 H        -2.046286        -1.616098         1.125196
 H        -0.942125        -2.354148         0.237214
 H        -0.688402         1.731364         0.855624
 H         0.031162         1.430065        -0.781920
