19
Iteration:  2204
 C        -3.738779         0.645357        -0.803667
 C        -2.420531         0.175065        -1.427128
 C        -2.464663        -0.906959        -2.470681
 C        -2.058552        -1.199689        -0.937731
 C        -0.542778        -1.292443        -0.600297
 C        -0.268749        -0.019812         0.381085
 O        -0.416546        -0.065525         1.592579
 C        -0.516863         1.280260        -0.415392
 O        -1.267968         1.001201        -1.579808
 H        -4.273036         1.225346        -1.522895
 H        -4.345070        -0.260112        -0.824244
 H        -3.704001         1.015934         0.176008
 H        -3.495003        -1.256401        -2.820332
 H        -1.733433        -0.780757        -3.334513
 H        -2.712746        -1.909569        -0.438004
 H         0.111290        -2.102286        -0.236741
 H         0.099552        -0.821477        -1.439370
 H        -1.000728         1.734636         0.412406
 H         0.303456         2.031462        -0.727024
