19
Iteration:  1297charge 0 multiplicity 1
 C        -3.893558         0.825114        -1.792665
 C        -2.570976         0.201342        -1.503057
 C        -2.002478        -0.881734        -2.387525
 C        -2.249148        -1.179358        -0.894405
 C        -1.107195        -1.462429         0.080764
 C        -0.226985        -0.184862         0.391753
 O         0.889955        -0.132604         0.949133
 C        -0.851042         1.120228        -0.017933
 O        -1.796509         1.287620        -1.061615
 H        -3.663983         1.627626        -2.513930
 H        -4.549767         0.006579        -2.152447
 H        -4.307519         1.351539        -0.902508
 H        -2.654917        -1.291264        -3.175725
 H        -0.894413        -0.808929        -2.562459
 H        -3.165226        -1.802494        -0.697057
 H        -1.417855        -1.776664         1.068335
 H        -0.434568        -2.212857        -0.319451
 H        -1.436608         1.376322         0.934050
 H         0.037177         1.826527        -0.241614
