19
Iteration:  3747charge 0 multiplicity 1
 C        -3.865299         0.843947        -1.415762
 C        -2.535280         0.226784        -1.473584
 C        -2.249981        -0.760455        -2.655125
 C        -2.193565        -1.157988        -1.015507
 C        -0.724144        -1.251181        -0.433119
 C        -0.345546        -0.164415         0.528958
 O         0.517099        -0.367053         1.396902
 C        -1.020911         1.127611         0.110439
 O        -1.368392         1.114116        -1.276125
 H        -4.581119         0.266610        -2.020607
 H        -4.346105         0.957313        -0.392909
 H        -3.813420         1.873822        -1.848542
 H        -3.037624        -1.208392        -3.284697
 H        -1.322080        -0.693725        -3.138621
 H        -3.022478        -1.658419        -0.470728
 H        -0.662420        -2.203738         0.101800
 H        -0.145211        -1.161590        -1.364753
 H        -1.752338         1.494285         0.758587
 H        -0.284717         2.029540         0.143307
