19
Iteration:  3744
 C        -3.877497         0.859935        -1.412365
 C        -2.532915         0.226733        -1.483586
 C        -2.279413        -0.770035        -2.621364
 C        -2.186751        -1.139306        -1.045386
 C        -0.690855        -1.242079        -0.444175
 C        -0.345818        -0.161981         0.551744
 O         0.496311        -0.367343         1.382595
 C        -1.014619         1.124884         0.118430
 O        -1.361621         1.090881        -1.270013
 H        -4.604536         0.335660        -2.033222
 H        -4.285341         1.018018        -0.476616
 H        -3.817851         1.848884        -1.959623
 H        -3.054685        -1.216964        -3.180731
 H        -1.318644        -0.697805        -3.126091
 H        -2.925404        -1.687968        -0.476492
 H        -0.561409        -2.191843         0.122419
 H        -0.078215        -1.149876        -1.379555
 H        -1.812273         1.432979         0.789795
 H        -0.368406         1.974700         0.130493
