19
Iteration:   887charge 0 multiplicity 1
 C        -3.733552         0.583596        -0.596572
 C        -2.500709         0.155674        -1.375447
 C        -2.260286        -0.832247        -2.458360
 C        -1.930537        -1.247281        -1.099227
 C        -0.486252        -1.270525        -0.528062
 C        -0.448708        -0.102018         0.360681
 O        -0.472347         0.004483         1.582743
 C        -0.505335         1.242640        -0.497097
 O        -1.392691         1.062700        -1.642180
 H        -4.375183         1.330350        -1.151361
 H        -4.433922        -0.230337        -0.321757
 H        -3.363301         1.076483         0.291874
 H        -2.982750        -1.434791        -2.977873
 H        -1.488844        -0.421818        -3.169316
 H        -2.803193        -1.830576        -0.737738
 H        -0.110987        -2.233043        -0.110077
 H         0.109431        -1.023772        -1.532292
 H        -0.742190         2.099504         0.138754
 H         0.572531         1.267836        -0.988776
