19
Iteration:  2075
 C        -3.862049         0.863428        -1.117851
 C        -2.561751         0.209668        -1.614137
 C        -2.180344        -0.959302        -2.468081
 C        -2.102808        -1.146165        -0.991054
 C        -0.740251        -1.320973        -0.300098
 C        -0.288493        -0.141050         0.386822
 O         0.280363        -0.101817         1.452646
 C        -0.817747         1.098540        -0.180258
 O        -1.451517         1.129200        -1.493481
 H        -4.337136         1.400555        -2.009865
 H        -4.567932         0.087132        -0.707730
 H        -3.702614         1.681043        -0.373165
 H        -3.027268        -1.500012        -3.027069
 H        -1.242107        -0.840851        -3.012337
 H        -2.866247        -1.770870        -0.562451
 H        -1.001996        -2.082560         0.415780
 H        -0.047311        -1.816318        -0.992919
 H        -1.553909         1.224106         0.686794
 H        -0.087143         1.963932        -0.191600
