19
Iteration:  1035charge 0 multiplicity 1
 C        -3.963593         0.630123        -1.286522
 C        -2.533486         0.202727        -1.516443
 C        -1.979999        -0.778432        -2.540992
 C        -2.208371        -1.191812        -1.064807
 C        -1.058790        -1.450392        -0.009192
 C        -0.302408        -0.144626         0.440825
 O         0.645502        -0.141461         1.231519
 C        -0.829349         1.265651        -0.115268
 O        -1.526212         1.215903        -1.428621
 H        -4.363586         1.455419        -1.811491
 H        -4.651776        -0.176443        -1.373022
 H        -4.035659         0.937717        -0.241325
 H        -2.530789        -1.240694        -3.305000
 H        -0.998370        -0.442698        -2.877722
 H        -3.091432        -1.845881        -0.881314
 H        -1.504562        -1.721473         0.937931
 H        -0.356890        -2.210154        -0.253664
 H        -1.633567         1.724697         0.500097
 H        -0.033782         1.963609        -0.279527
