19
Iteration:  2981charge 0 multiplicity 1
 C        -4.026591         0.740137        -1.411511
 C        -2.507388         0.256009        -1.500193
 C        -2.260899        -0.896367        -2.363775
 C        -2.074655        -1.157238        -0.883614
 C        -0.680339        -1.407954        -0.407801
 C        -0.303436        -0.082757         0.426685
 O         0.332312        -0.258449         1.493283
 C        -0.719405         1.246435        -0.138734
 O        -1.489247         1.235092        -1.421333
 H        -4.264670         1.122438        -2.378086
 H        -4.737592        -0.114606        -1.292229
 H        -4.349394         1.389233        -0.602013
 H        -3.073689        -1.384396        -2.970750
 H        -1.392441        -1.071084        -2.978371
 H        -2.876386        -1.731988        -0.566144
 H        -0.667351        -2.161645         0.322643
 H         0.148447        -1.602826        -1.156275
 H        -1.365772         1.812870         0.473059
 H         0.149116         1.772031        -0.484791
