19
Iteration:   265charge 0 multiplicity 1
 C        -3.936736         0.757517        -1.365436
 C        -2.610398         0.077455        -1.456271
 C        -2.234403        -1.151061        -2.357835
 C        -2.101638        -1.202591        -0.828797
 C        -0.653170        -1.262564        -0.279170
 C        -0.215992        -0.000309         0.410085
 O         0.484337        -0.008583         1.420016
 C        -0.841657         1.243423        -0.266008
 O        -1.654278         1.129184        -1.506608
 H        -4.568308         0.291998        -0.612896
 H        -3.702193         1.769951        -0.973305
 H        -4.427225         0.853943        -2.378347
 H        -3.041165        -1.747108        -2.859481
 H        -1.280016        -0.905686        -2.983371
 H        -2.797577        -1.911422        -0.251781
 H        -0.533891        -2.031699         0.548287
 H        -0.061181        -1.542723        -1.116079
 H        -1.426480         1.791843         0.533344
 H        -0.131684         1.992755        -0.637471
