19
Iteration:   507charge 0 multiplicity 1
 C        -3.958167         0.237907        -1.988577
 C        -2.520066         0.203173        -1.439593
 C        -1.452052        -0.534977        -2.197975
 C        -2.174175        -1.129706        -1.032576
 C        -1.430507        -0.973210         0.410538
 C        -0.230677        -0.069644         0.270658
 O         0.897958        -0.492665         0.363456
 C        -0.749744         1.282383        -0.172418
 O        -2.115056         1.191899        -0.408500
 H        -3.925065         0.336951        -3.123321
 H        -4.269501        -0.773745        -1.723528
 H        -4.612536         0.988094        -1.606810
 H        -1.761103        -0.853691        -3.116738
 H        -0.431644        -0.222956        -2.082589
 H        -2.882106        -1.949621        -1.107118
 H        -2.302049        -0.524466         1.053847
 H        -1.265878        -1.952603         0.689111
 H        -0.578323         1.973734         0.655639
 H        -0.129631         1.626496        -0.951526
