19
Iteration:  2476charge 0 multiplicity 1
 C        -3.823872         0.675360        -1.836449
 C        -2.448175         0.157342        -1.499636
 C        -1.873636        -0.926698        -2.316544
 C        -2.246108        -1.127144        -0.898672
 C        -1.264132        -1.281938         0.148519
 C        -0.263413        -0.103795         0.364788
 O         0.933258        -0.220761         0.460633
 C        -1.120178         1.149215         0.358590
 O        -1.624971         1.313618        -0.993016
 H        -3.890951         1.363332        -2.771236
 H        -4.447795        -0.247497        -2.021314
 H        -4.314952         1.171874        -0.964025
 H        -2.541568        -1.238515        -3.114421
 H        -0.794668        -0.978677        -2.478077
 H        -3.185433        -1.689891        -0.696041
 H        -1.835253        -1.322028         1.137301
 H        -0.619781        -2.100783        -0.082754
 H        -1.954820         0.969124         1.036556
 H        -0.666717         2.116392         0.769727
