19
Iteration:  2792charge 0 multiplicity 1
 C        -3.808898         0.713664        -0.906536
 C        -2.544909         0.119486        -1.491311
 C        -2.309816        -0.910597        -2.483376
 C        -2.069634        -1.277539        -1.053990
 C        -0.601082        -1.271205        -0.509859
 C        -0.349456        -0.072750         0.396729
 O        -0.121164        -0.120294         1.619474
 C        -0.506354         1.238467        -0.402902
 O        -1.467887         1.165443        -1.492951
 H        -4.521795         0.883913        -1.728313
 H        -4.310160         0.032938        -0.219209
 H        -3.555881         1.567888        -0.271075
 H        -3.039984        -1.234640        -3.163221
 H        -1.452332        -0.773278        -3.060302
 H        -2.757172        -1.739710        -0.365514
 H        -0.337109        -2.185928         0.162087
 H         0.192154        -1.169023        -1.314787
 H        -0.839404         1.871985         0.370515
 H         0.492399         1.580017        -0.856201
