19
Iteration:  4313
 C        -4.023991         0.715830        -1.900273
 C        -2.585788         0.267636        -1.467328
 C        -1.715954        -0.586435        -2.451112
 C        -2.130830        -1.118153        -1.032707
 C        -1.337863        -1.386888         0.215860
 C        -0.266545        -0.305811         0.460680
 O         0.910778        -0.409101         0.824216
 C        -0.753314         1.139741        -0.005690
 O        -1.857548         1.324276        -0.843865
 H        -4.708796        -0.084647        -2.223889
 H        -4.623206         1.194019        -1.190376
 H        -4.146622         1.370659        -2.726180
 H        -2.240847        -1.158722        -3.305695
 H        -0.766030        -0.166756        -2.734617
 H        -2.984116        -1.734640        -1.050663
 H        -1.876755        -1.582583         1.131348
 H        -0.800155        -2.345314         0.131560
 H        -0.917003         1.611677         0.957431
 H         0.176357         1.572507        -0.340078
