19
Iteration:  2976charge 0 multiplicity 1
 C        -3.980899         0.738584        -1.356997
 C        -2.507187         0.273059        -1.517889
 C        -2.273710        -0.929808        -2.367127
 C        -2.095886        -1.156910        -0.923713
 C        -0.644483        -1.355764        -0.424986
 C        -0.314534        -0.108193         0.425891
 O         0.268960        -0.236571         1.492920
 C        -0.720810         1.233979        -0.149225
 O        -1.468944         1.199237        -1.427658
 H        -4.317333         1.221735        -2.330082
 H        -4.730469        -0.076220        -1.312863
 H        -4.218730         1.271470        -0.402384
 H        -3.131753        -1.306489        -2.886867
 H        -1.284670        -0.979577        -2.870121
 H        -2.866334        -1.894863        -0.491697
 H        -0.604613        -2.181107         0.382905
 H         0.105287        -1.525160        -1.191489
 H        -1.291877         1.942842         0.552644
 H         0.174610         1.818805        -0.558533
