19
Iteration:  3433
 C        -3.794893         0.907302        -1.083929
 C        -2.542931         0.154709        -1.512376
 C        -2.252691        -0.854971        -2.573589
 C        -2.053277        -1.236972        -1.066254
 C        -0.693231        -1.299737        -0.508258
 C        -0.366945        -0.110489         0.440285
 O         0.273260        -0.223741         1.442171
 C        -0.955652         1.222866         0.022394
 O        -1.378477         1.049081        -1.429096
 H        -3.378267         1.874940        -0.935597
 H        -4.532362         0.859711        -1.943640
 H        -4.237992         0.637537        -0.147677
 H        -3.110439        -1.330346        -3.104297
 H        -1.435283        -0.669381        -3.291177
 H        -2.787750        -1.898191        -0.678528
 H        -0.562852        -2.133784         0.214082
 H         0.118114        -1.413316        -1.319734
 H        -1.899275         1.391096         0.565248
 H        -0.388971         2.107238        -0.023894
