19
Iteration:   498
 C        -3.987010         0.268086        -2.001803
 C        -2.575360         0.205552        -1.450121
 C        -1.444492        -0.521544        -2.191903
 C        -2.046504        -1.145450        -0.931829
 C        -1.438099        -1.030582         0.388256
 C        -0.239845        -0.112119         0.262886
 O         0.908250        -0.540400         0.370377
 C        -0.740812         1.298227        -0.141629
 O        -2.175820         1.243747        -0.508683
 H        -4.054791         0.489270        -3.074875
 H        -4.634585        -0.571157        -1.825610
 H        -4.473189         1.045494        -1.458747
 H        -1.617304        -0.904896        -3.155391
 H        -0.426825        -0.147272        -2.065026
 H        -2.616791        -2.025603        -0.985146
 H        -2.101934        -0.559835         1.116697
 H        -1.016671        -1.899833         0.866558
 H        -0.704580         2.000956         0.697810
 H        -0.225573         1.796334        -0.947479
