19
Iteration:   437charge 0 multiplicity 1
 C        -3.892315         0.478506        -1.934284
 C        -2.449673         0.179525        -1.403777
 C        -1.691714        -0.960581        -2.214970
 C        -2.292574        -1.230636        -0.864624
 C        -1.267907        -1.270760         0.222426
 C        -0.266001        -0.067511         0.218291
 O         0.946647        -0.199405         0.473431
 C        -0.870910         1.350977         0.072894
 O        -2.002896         1.363292        -0.761569
 H        -3.938176         1.448264        -2.410618
 H        -4.118879        -0.387864        -2.600971
 H        -4.606780         0.528180        -1.022743
 H        -2.103071        -1.209602        -3.239518
 H        -0.559569        -0.949367        -2.184464
 H        -3.160802        -1.909598        -0.948810
 H        -1.809348        -1.313603         1.178544
 H        -0.605501        -2.216918         0.076519
 H        -1.188479         1.652983         1.079300
 H        -0.050082         2.021946        -0.311692
