19
Iteration:  1777
 C        -3.966974         0.670125        -1.857198
 C        -2.533149         0.227598        -1.454502
 C        -1.676696        -0.886397        -2.180394
 C        -2.307558        -1.119197        -0.812547
 C        -1.257881        -1.325368         0.232067
 C        -0.322902        -0.180106         0.245063
 O         0.844573        -0.383365         0.593489
 C        -0.895097         1.198597         0.100925
 O        -1.705079         1.442336        -1.089259
 H        -3.921231         1.674302        -2.302963
 H        -4.369501        -0.050751        -2.632736
 H        -4.526242         0.659260        -0.875185
 H        -2.072388        -1.456210        -2.984400
 H        -0.636275        -0.581052        -2.113853
 H        -3.196882        -1.811532        -0.751340
 H        -1.600375        -1.424600         1.290064
 H        -0.588767        -2.220193         0.043358
 H        -1.528759         1.360016         0.967003
 H        -0.076630         1.920648         0.156804
