19
Iteration:  2568charge 0 multiplicity 1
 C        -3.839966         0.556036        -1.841072
 C        -2.442611         0.300352        -1.476896
 C        -1.750931        -0.864933        -2.395257
 C        -2.157680        -1.091677        -0.922653
 C        -1.289391        -1.321051         0.386891
 C        -0.315298        -0.208832         0.390699
 O         0.860229        -0.318380         0.363955
 C        -1.051651         1.166189         0.282717
 O        -1.715404         1.436854        -0.963533
 H        -3.928813         1.397066        -2.522862
 H        -4.161570        -0.400483        -2.322414
 H        -4.527316         0.800364        -1.002065
 H        -2.486865        -1.404680        -3.077451
 H        -0.734192        -0.674927        -2.752475
 H        -3.068168        -1.671502        -0.697744
 H        -2.064590        -1.253958         1.129719
 H        -0.776697        -2.319137         0.391043
 H        -1.818027         1.269831         1.079188
 H        -0.378727         1.968702         0.420096
