19
Iteration:  3155
 C        -3.830769         0.668432        -2.135376
 C        -2.511784         0.304778        -1.477738
 C        -1.737210        -0.805437        -2.208562
 C        -2.323033        -1.053647        -0.794818
 C        -1.239502        -1.397626         0.374689
 C        -0.261977        -0.267511         0.313076
 O         0.985278        -0.245814         0.247861
 C        -1.046290         1.059719         0.348603
 O        -1.793874         1.381237        -0.842832
 H        -4.127645         1.720399        -2.137448
 H        -4.026569         0.169681        -3.153511
 H        -4.602639         0.362843        -1.387330
 H        -1.869298        -1.459371        -3.083023
 H        -0.667350        -0.585480        -2.036489
 H        -3.174078        -1.612592        -0.880114
 H        -1.743154        -1.373143         1.358407
 H        -1.078736        -2.530541         0.194363
 H        -1.779619         1.220254         1.212221
 H        -0.387455         1.856412         0.539103
