19
Iteration:  3341
 C        -3.994193         0.757618        -1.532253
 C        -2.561010         0.183752        -1.388131
 C        -1.888332        -0.701914        -2.435202
 C        -2.168171        -1.182294        -1.064945
 C        -0.966579        -1.415165        -0.130533
 C        -0.299209        -0.182346         0.339912
 O         0.577733        -0.324079         1.176920
 C        -0.695105         1.159094        -0.168449
 O        -1.813392         1.315114        -1.052138
 H        -3.963778         1.861367        -1.831862
 H        -4.473470         0.108243        -2.276047
 H        -4.609291         0.868020        -0.561881
 H        -2.385809        -1.103383        -3.316416
 H        -0.817413        -0.362438        -2.606781
 H        -3.003276        -1.902755        -0.854300
 H        -1.272514        -1.993683         0.774197
 H        -0.115780        -2.055561        -0.595315
 H        -0.741221         1.832610         0.781236
 H         0.201059         1.496728        -0.784939
