19
Iteration:  1245charge 0 multiplicity 1
 C        -3.874234         0.566676        -1.858079
 C        -2.472386         0.247013        -1.468161
 C        -1.650310        -0.780955        -2.189960
 C        -2.248095        -1.061996        -0.828767
 C        -1.444228        -1.295506         0.386872
 C        -0.301858        -0.202241         0.369701
 O         0.918846        -0.335423         0.244737
 C        -1.104077         1.183297         0.286950
 O        -1.596191         1.333326        -1.078633
 H        -3.954306         1.532623        -2.382236
 H        -4.168237        -0.270075        -2.489745
 H        -4.478375         0.619937        -1.009382
 H        -2.157990        -1.176054        -3.090022
 H        -0.549720        -0.718075        -2.328794
 H        -3.184734        -1.605339        -0.835720
 H        -1.981302        -1.107951         1.415395
 H        -1.016360        -2.354562         0.485360
 H        -1.977034         1.225791         0.946315
 H        -0.348528         2.046488         0.386745
