19
Iteration:  1589
 C        -3.778937         0.871351        -1.214907
 C        -2.457703         0.179002        -1.405123
 C        -2.430631        -0.992799        -2.395470
 C        -2.033908        -1.257937        -0.971250
 C        -0.658036        -1.415078        -0.465332
 C        -0.280254        -0.069960         0.340205
 O         0.167122        -0.096824         1.465464
 C        -0.861140         1.254264        -0.172593
 O        -1.370617         1.112693        -1.481746
 H        -3.976880         1.592454        -1.952987
 H        -4.612874         0.209923        -1.190960
 H        -3.831001         1.477082        -0.322958
 H        -3.464057        -1.218296        -2.685817
 H        -1.552123        -1.100274        -3.086639
 H        -2.727922        -1.746812        -0.327749
 H        -0.552715        -2.254611         0.222669
 H         0.119402        -1.639415        -1.311239
 H        -1.775083         1.510587         0.556015
 H        -0.176619         2.118951        -0.066874
