19
Iteration:   317charge 0 multiplicity 1
 C        -3.811331         0.569445        -1.178949
 C        -2.452989         0.133954        -1.582888
 C        -2.165356        -0.966115        -2.586953
 C        -2.130294        -1.205404        -1.028901
 C        -1.053058        -1.320059         0.034713
 C        -0.371777         0.092165         0.468934
 O         0.738701         0.090714         1.006265
 C        -1.153564         1.267112        -0.019207
 O        -1.353104         0.995762        -1.400355
 H        -3.787167         0.846266        -0.142302
 H        -4.183995         1.429835        -1.770090
 H        -4.499575        -0.328258        -1.372327
 H        -3.039685        -1.469695        -3.026867
 H        -1.141423        -1.011297        -3.038816
 H        -2.991539        -1.665365        -0.633574
 H        -1.529757        -1.606106         0.987742
 H        -0.394080        -2.109981        -0.336325
 H        -2.109352         1.452346         0.522487
 H        -0.624571         2.264202        -0.021190
