19
Iteration:  1793charge 0 multiplicity 1
 C        -3.828361         0.776706        -1.980737
 C        -2.533782         0.213986        -1.377957
 C        -1.756944        -0.825709        -2.036965
 C        -2.411270        -1.222337        -0.729997
 C        -1.196140        -1.403824         0.174899
 C        -0.271778        -0.167311         0.268416
 O         0.914633        -0.306038         0.539716
 C        -0.948862         1.211124         0.066731
 O        -1.784742         1.322878        -1.052726
 H        -3.579484         1.801769        -2.246255
 H        -4.252122         0.260826        -2.808813
 H        -4.734288         0.742544        -1.455195
 H        -1.952213        -0.969921        -3.128555
 H        -0.665610        -0.881462        -1.938362
 H        -3.304856        -1.789492        -0.627177
 H        -1.550751        -1.608641         1.217665
 H        -0.634098        -2.237420        -0.178565
 H        -1.605243         1.368800         1.008841
 H        -0.242274         2.082819        -0.095560
