19
Iteration:   533
 C        -3.864662         0.375842        -2.054035
 C        -2.509592         0.168896        -1.369127
 C        -1.544063        -0.587765        -2.198637
 C        -2.131369        -1.182922        -0.960933
 C        -1.426964        -1.200053         0.403633
 C        -0.290367        -0.130074         0.229772
 O         0.921290        -0.294688         0.402356
 C        -0.759112         1.230500        -0.218183
 O        -2.158536         1.271826        -0.401113
 H        -3.774948         0.527876        -3.095927
 H        -4.378460        -0.534003        -1.786083
 H        -4.226294         1.341186        -1.666574
 H        -2.041379        -0.932955        -3.173899
 H        -0.460293        -0.406160        -2.203509
 H        -2.896819        -1.946006        -0.946692
 H        -2.183672        -0.816796         1.043326
 H        -1.189828        -2.308048         0.679678
 H        -0.364655         1.972829         0.489568
 H        -0.193686         1.408343        -1.178309
