19
Iteration:   339
 C        -3.875535         0.615175        -1.313358
 C        -2.528266         0.128621        -1.600293
 C        -2.007744        -1.093828        -2.471108
 C        -2.133031        -1.289704        -0.992241
 C        -1.070414        -1.208400         0.085134
 C        -0.348271         0.055258         0.423298
 O         0.803698        -0.076789         0.863733
 C        -1.182702         1.302552         0.095090
 O        -1.431907         1.197402        -1.362070
 H        -3.738453         1.488092        -0.714446
 H        -4.354012         0.948513        -2.251530
 H        -4.430540        -0.279249        -0.874722
 H        -2.826379        -1.417549        -3.118840
 H        -0.970157        -1.036835        -2.961543
 H        -2.976766        -1.843352        -0.668046
 H        -1.544906        -1.417625         1.067441
 H        -0.368119        -2.041735        -0.131140
 H        -2.106084         1.323961         0.712667
 H        -0.676093         2.267797         0.336435
