19
Iteration:  4432charge 0 multiplicity 1
 C        -3.771317         0.691032        -2.168396
 C        -2.625729         0.221351        -1.395280
 C        -1.619809        -0.544223        -2.229654
 C        -2.254248        -1.146449        -0.962597
 C        -1.399643        -1.137683         0.339758
 C        -0.238564        -0.202620         0.192199
 O         0.857476        -0.529765         0.560112
 C        -0.632513         1.157133        -0.099237
 O        -2.106081         1.147531        -0.446119
 H        -4.013524        -0.013271        -3.002108
 H        -4.665400         0.757764        -1.609843
 H        -3.607631         1.720709        -2.651497
 H        -1.932044        -0.948756        -3.211632
 H        -0.478906        -0.330900        -2.261241
 H        -2.928821        -1.940072        -1.138229
 H        -1.871112        -0.922904         1.337501
 H        -1.086635        -2.125489         0.578183
 H        -0.742483         1.691107         0.905895
 H        -0.016172         1.783672        -0.719853
