19
Iteration:  2711charge 0 multiplicity 1
 C        -3.820409         0.990287        -1.496420
 C        -2.571859         0.179387        -1.571679
 C        -2.253937        -1.042756        -2.428202
 C        -2.169048        -1.238299        -0.902108
 C        -0.735763        -1.322131        -0.284686
 C        -0.332520        -0.152194         0.447919
 O         0.672208        -0.057837         1.214217
 C        -1.155771         1.108948         0.083568
 O        -1.482320         1.112931        -1.335150
 H        -3.685257         2.054727        -1.755754
 H        -4.655212         0.521618        -2.091044
 H        -4.132921         1.039196        -0.443200
 H        -3.104260        -1.483293        -3.020443
 H        -1.160470        -1.082501        -2.844889
 H        -3.007438        -1.809219        -0.393110
 H        -0.532704        -2.153358         0.346783
 H         0.048948        -1.342945        -1.114301
 H        -1.793319         1.303501         0.925527
 H        -0.352378         1.822612         0.301866
