19
Iteration:  1106charge 0 multiplicity 1
 C        -3.904205         0.592942        -1.932127
 C        -2.511529         0.227195        -1.436782
 C        -1.772100        -0.856855        -2.207246
 C        -2.292314        -1.039834        -0.807779
 C        -1.227884        -1.381041         0.266494
 C        -0.312660        -0.164927         0.323621
 O         0.881057        -0.232808         0.455940
 C        -1.001916         1.180943         0.233776
 O        -1.669172         1.329505        -1.033098
 H        -3.831228         1.453980        -2.705668
 H        -4.269790        -0.283729        -2.558587
 H        -4.738493         0.936642        -1.238554
 H        -2.278423        -1.293544        -3.063187
 H        -0.659383        -0.666561        -2.373673
 H        -3.124695        -1.681330        -0.660962
 H        -1.672094        -1.506351         1.225609
 H        -0.589030        -2.281654         0.068477
 H        -1.637638         1.237109         1.159733
 H        -0.122384         1.876186         0.250930
