19
Iteration:  3468
 C        -3.688750         0.801551        -0.964505
 C        -2.396538         0.195243        -1.588897
 C        -2.544716        -0.843666        -2.591341
 C        -1.993845        -1.232948        -1.148551
 C        -0.627070        -1.289457        -0.541067
 C        -0.465275        -0.235531         0.508992
 O         0.141783        -0.108859         1.568295
 C        -0.929963         1.181439        -0.033431
 O        -1.228460         1.091579        -1.517577
 H        -3.690247         1.870359        -1.117529
 H        -4.590186         0.564677        -1.591198
 H        -3.913719         0.479907         0.009575
 H        -3.626968        -1.091499        -2.728891
 H        -1.810199        -0.870172        -3.507107
 H        -2.681923        -1.812558        -0.566181
 H        -0.185734        -2.215819        -0.178925
 H        -0.002197        -0.913208        -1.386551
 H        -1.905389         1.368912         0.404528
 H        -0.263242         2.002375         0.317951
