19
Iteration:  4428
 C        -3.792437         0.702552        -2.199638
 C        -2.613441         0.245294        -1.386602
 C        -1.638454        -0.556415        -2.197096
 C        -2.253953        -1.166416        -0.976021
 C        -1.364522        -1.107518         0.353443
 C        -0.233226        -0.234090         0.170501
 O         0.870312        -0.518581         0.573116
 C        -0.635035         1.147546        -0.100647
 O        -2.115484         1.136384        -0.458057
 H        -4.041566         0.041291        -3.014702
 H        -4.716669         0.748744        -1.561751
 H        -3.475315         1.778980        -2.546498
 H        -1.888181        -0.943820        -3.170861
 H        -0.711019        -0.158017        -2.054331
 H        -2.878358        -2.075971        -1.264846
 H        -1.920107        -0.834371         1.269917
 H        -1.153817        -2.160389         0.573127
 H        -0.818831         1.616554         0.887958
 H         0.078481         1.748680        -0.754630
