19
Iteration:  4933
 C        -3.817348         0.706084        -2.039843
 C        -2.481462         0.286196        -1.421604
 C        -1.745562        -0.708620        -2.276693
 C        -2.413374        -1.129521        -0.951688
 C        -1.323851        -1.397369         0.114554
 C        -0.277288        -0.234181         0.299502
 O         0.863757        -0.343546         0.658286
 C        -0.674144         1.128157         0.062582
 O        -1.982642         1.342835        -0.610360
 H        -4.179323        -0.269783        -2.352553
 H        -4.480117         1.167404        -1.304177
 H        -3.581522         1.206343        -3.128237
 H        -1.950500        -0.683924        -3.383593
 H        -0.599753        -0.755322        -2.141064
 H        -3.150299        -1.923401        -1.118967
 H        -1.749004        -1.332908         1.087290
 H        -0.815568        -2.350690        -0.182323
 H        -0.705383         1.638161         1.067405
 H         0.088083         1.540949        -0.578900
