19
Iteration:   536
 C        -3.859379         0.416952        -2.049775
 C        -2.528797         0.155818        -1.369701
 C        -1.542772        -0.599053        -2.186818
 C        -2.123401        -1.196364        -0.944410
 C        -1.381467        -1.209789         0.408354
 C        -0.281998        -0.137612         0.233958
 O         0.918827        -0.297490         0.411292
 C        -0.785376         1.223304        -0.227662
 O        -2.166639         1.288593        -0.426343
 H        -3.772172         0.528435        -3.136512
 H        -4.468408        -0.468543        -1.815844
 H        -4.263611         1.371283        -1.627272
 H        -1.973632        -0.965921        -3.148686
 H        -0.476615        -0.356198        -2.233290
 H        -2.937436        -1.990850        -1.005154
 H        -2.164219        -0.870649         1.047728
 H        -1.160789        -2.255968         0.612288
 H        -0.418652         1.943654         0.535983
 H        -0.180156         1.401589        -1.183851
