19
Iteration:  4910charge 0 multiplicity 1
 C        -3.826361         0.654837        -1.980707
 C        -2.474050         0.269394        -1.372151
 C        -1.742671        -0.695526        -2.294707
 C        -2.268596        -1.086828        -0.951867
 C        -1.297633        -1.405471         0.064342
 C        -0.274678        -0.194988         0.292609
 O         0.787475        -0.487061         0.756851
 C        -0.670030         1.241982        -0.057637
 O        -2.022259         1.393612        -0.663708
 H        -4.052678        -0.057677        -2.784844
 H        -4.555639         0.653984        -1.215840
 H        -3.630163         1.671971        -2.601703
 H        -2.381217        -0.999162        -3.129716
 H        -0.608184        -1.010707        -2.407739
 H        -3.172156        -1.718921        -0.825359
 H        -1.673607        -1.513297         1.054852
 H        -0.704806        -2.312604        -0.231141
 H        -0.743549         1.627252         1.003486
 H         0.105230         1.787306        -0.579002
