19
Iteration:   534
 C        -3.863384         0.389344        -2.054229
 C        -2.515553         0.162579        -1.369291
 C        -1.544044        -0.591051        -2.192916
 C        -2.127707        -1.186560        -0.956270
 C        -1.412636        -1.202386         0.407202
 C        -0.288282        -0.131809         0.230097
 O         0.920947        -0.295486         0.405536
 C        -0.769079         1.228020        -0.220785
 O        -2.161226         1.278226        -0.409031
 H        -3.775770         0.528217        -3.098027
 H        -4.399054        -0.512004        -1.795399
 H        -4.235179         1.359410        -1.652864
 H        -2.028030        -0.949698        -3.177386
 H        -0.462993        -0.387022        -2.211941
 H        -2.915867        -1.964518        -0.963077
 H        -2.164101        -0.843628         1.026676
 H        -1.184945        -2.304932         0.656030
 H        -0.377999         1.962248         0.506654
 H        -0.182826         1.404176        -1.188752
