19
Iteration:  3949
 C        -3.774136         1.042164        -1.531110
 C        -2.489664         0.234997        -1.509409
 C        -2.041029        -0.805154        -2.523896
 C        -2.201938        -1.196201        -0.986820
 C        -1.010515        -1.407673        -0.183495
 C        -0.433404        -0.207086         0.426256
 O         0.734455        -0.094154         0.844998
 C        -1.245748         1.010361         0.379723
 O        -1.344223         1.063600        -1.101994
 H        -4.508488         0.507312        -2.182049
 H        -4.213114         1.241866        -0.561580
 H        -3.516425         1.990322        -2.090882
 H        -2.805873        -1.090503        -3.260958
 H        -1.014151        -0.934340        -2.912667
 H        -3.014419        -1.972290        -0.904273
 H        -1.369982        -2.138159         0.552727
 H        -0.230844        -1.978929        -0.595986
 H        -2.265956         1.017078         0.625621
 H        -0.743551         1.821966         0.745653
