19
Iteration:  1603charge 0 multiplicity 1
 C        -3.748419         1.002034        -1.309030
 C        -2.514208         0.126660        -1.481038
 C        -2.367701        -1.034459        -2.391608
 C        -2.147792        -1.225362        -0.893376
 C        -0.600303        -1.272011        -0.508357
 C        -0.316790        -0.109408         0.418995
 O         0.341140        -0.097977         1.459796
 C        -0.971680         1.179452        -0.113189
 O        -1.457389         1.024282        -1.427958
 H        -3.554352         1.795077        -2.085294
 H        -4.722565         0.485435        -1.461375
 H        -3.751253         1.416979        -0.306035
 H        -3.262092        -1.557565        -2.801910
 H        -1.548477        -1.109323        -3.087992
 H        -2.864007        -1.830876        -0.336031
 H        -0.369064        -2.239113         0.017566
 H         0.026298        -1.159102        -1.427392
 H        -1.725013         1.506730         0.668968
 H        -0.182802         1.894505        -0.192703
