19
Iteration:  4729charge 0 multiplicity 1
 C        -3.938522         0.699627        -1.750088
 C        -2.583517         0.323962        -1.493366
 C        -1.919766        -0.715364        -2.503705
 C        -2.359094        -1.174103        -0.988589
 C        -1.096126        -1.383261        -0.224074
 C        -0.167515        -0.218589         0.351601
 O         0.607461        -0.429285         1.308993
 C        -0.494621         1.242301        -0.234502
 O        -1.813040         1.314255        -0.764619
 H        -4.498128        -0.007164        -2.350866
 H        -4.487748         0.795634        -0.697781
 H        -4.074282         1.647883        -2.162314
 H        -2.505110        -0.955317        -3.372337
 H        -0.816719        -0.587186        -2.799356
 H        -3.271010        -1.864901        -0.852265
 H        -1.486773        -1.893000         0.687263
 H        -0.393261        -2.103384        -0.566000
 H        -0.472726         1.906956         0.674003
 H         0.186686         1.636371        -0.974191
