19
Iteration:  2552
 C        -3.852238         0.651285        -1.940718
 C        -2.463758         0.237721        -1.431048
 C        -1.711852        -0.818423        -2.183759
 C        -2.269227        -1.176182        -0.791818
 C        -1.271195        -1.382454         0.287073
 C        -0.295221        -0.149890         0.295196
 O         0.906337        -0.304518         0.352503
 C        -1.098147         1.129794         0.256767
 O        -1.732752         1.428223        -1.009849
 H        -3.671247         1.650352        -2.417206
 H        -4.254254         0.120024        -2.792670
 H        -4.528458         0.731185        -1.070880
 H        -2.190669        -1.182838        -3.044042
 H        -0.613951        -0.762872        -2.159037
 H        -3.146143        -1.850605        -0.768742
 H        -1.646261        -1.383451         1.369974
 H        -0.634374        -2.231058         0.083875
 H        -1.891024         1.027160         1.014934
 H        -0.465367         2.037428         0.544276
