19
Iteration:   262
 C        -3.949020         0.737923        -1.372652
 C        -2.610849         0.083542        -1.457382
 C        -2.255093        -1.157660        -2.340860
 C        -2.096496        -1.189771        -0.807628
 C        -0.646039        -1.225498        -0.303949
 C        -0.234589         0.019555         0.404407
 O         0.472815        -0.028713         1.437936
 C        -0.817325         1.224269        -0.271130
 O        -1.635937         1.134516        -1.501452
 H        -4.621424         0.170645        -0.714767
 H        -3.750051         1.728571        -0.940030
 H        -4.425391         0.856709        -2.409577
 H        -3.046810        -1.755782        -2.886083
 H        -1.375975        -1.045530        -2.982355
 H        -2.739463        -1.782295        -0.250992
 H        -0.432616        -1.994470         0.444581
 H        -0.084731        -1.505397        -1.208113
 H        -1.393637         1.781021         0.554041
 H        -0.024156         1.979950        -0.635435
