19
Iteration:   170charge 0 multiplicity 1
 C        -3.610173         0.822377        -0.709835
 C        -2.495349        -0.028283        -1.388314
 C        -2.403466        -1.079487        -2.413197
 C        -1.884795        -1.341538        -1.003781
 C        -0.471017        -1.279539        -0.372269
 C        -0.457196         0.075392         0.351108
 O        -0.139288         0.207640         1.506269
 C        -0.813573         1.279388        -0.514126
 O        -1.457814         0.884562        -1.741070
 H        -4.514377         0.793341        -1.349072
 H        -3.859031         0.493418         0.320611
 H        -3.321598         1.842668        -0.625903
 H        -3.308300        -1.558126        -2.768167
 H        -1.745254        -0.811487        -3.252358
 H        -2.602685        -2.064836        -0.422348
 H        -0.146817        -2.163514         0.248970
 H         0.301433        -1.118390        -1.162349
 H        -1.547995         1.849127         0.124097
 H         0.092788         1.912010        -0.600414
