19
Iteration:  2754
 C        -3.815794         0.741666        -1.113986
 C        -2.449420         0.211385        -1.538394
 C        -2.414583        -0.882411        -2.490170
 C        -2.084310        -1.249167        -1.022438
 C        -0.672211        -1.305576        -0.340571
 C        -0.410402        -0.059539         0.453193
 O         0.294352        -0.121577         1.451535
 C        -0.877149         1.227132        -0.158633
 O        -1.335666         1.042439        -1.538417
 H        -4.173013         1.504624        -1.815027
 H        -4.494613        -0.122064        -0.903193
 H        -3.791537         1.403228        -0.231948
 H        -3.349050        -1.322539        -2.956038
 H        -1.447036        -0.763040        -3.124631
 H        -2.911633        -1.681742        -0.390495
 H        -0.585985        -2.183756         0.249187
 H         0.212646        -1.411046        -1.006685
 H        -1.832534         1.651379         0.366202
 H        -0.091083         2.016485        -0.108738
