19
Iteration:  4929
 C        -3.790400         0.667628        -2.042556
 C        -2.458252         0.297968        -1.423985
 C        -1.776093        -0.704793        -2.286660
 C        -2.450796        -1.165437        -0.943797
 C        -1.290987        -1.388711         0.096147
 C        -0.272400        -0.244380         0.268778
 O         0.836907        -0.349316         0.678759
 C        -0.681897         1.157789         0.067330
 O        -1.947994         1.361235        -0.589022
 H        -4.168684        -0.309604        -2.420276
 H        -4.462523         1.053040        -1.307624
 H        -3.622343         1.281884        -2.967869
 H        -1.937095        -0.728668        -3.347851
 H        -0.588710        -0.693520        -2.237537
 H        -3.343262        -1.835362        -1.075451
 H        -1.841198        -1.341452         1.106964
 H        -0.743607        -2.272867        -0.200464
 H        -0.754671         1.693686         1.010167
 H         0.069503         1.554807        -0.644531
