19
Iteration:  4146charge 0 multiplicity 1
 C        -3.978123         0.627005        -1.700155
 C        -2.610688         0.247178        -1.384715
 C        -1.780040        -0.437920        -2.445639
 C        -2.109471        -1.170715        -1.167134
 C        -1.210387        -1.382677         0.041953
 C        -0.201997        -0.277912         0.296658
 O         0.571365        -0.321379         1.232096
 C        -0.484921         1.038731        -0.476348
 O        -1.915893         1.282116        -0.647460
 H        -4.593304        -0.159477        -2.140649
 H        -4.536008         0.991349        -0.854888
 H        -4.102864         1.450730        -2.452776
 H        -2.317955        -0.603874        -3.418573
 H        -0.780106        -0.101605        -2.608684
 H        -2.983012        -1.925932        -1.419271
 H        -1.898722        -1.390162         0.949609
 H        -0.736736        -2.361156         0.099219
 H        -0.049445         1.947134         0.128046
 H         0.197657         1.085858        -1.422497
