19
Iteration:  3654
 C        -3.905832         0.683237        -1.093070
 C        -2.453737         0.200611        -1.462424
 C        -2.307019        -0.674894        -2.635634
 C        -2.005378        -1.130213        -1.090978
 C        -0.713307        -1.277070        -0.538548
 C        -0.437960        -0.146576         0.489381
 O         0.139687        -0.407142         1.578805
 C        -0.763716         1.276016        -0.126197
 O        -1.310463         1.128883        -1.431459
 H        -4.432735        -0.245713        -0.829345
 H        -3.900272         1.388434        -0.254592
 H        -4.398721         1.120479        -1.947954
 H        -3.303352        -1.067012        -3.057517
 H        -1.438354        -0.513297        -3.304593
 H        -2.870865        -1.705960        -0.631009
 H        -0.580563        -2.191348         0.066577
 H         0.137913        -1.044941        -1.212774
 H        -1.385007         1.765942         0.576238
 H         0.131561         1.795013        -0.107404
