19
Iteration:  1129charge 0 multiplicity 1
 C        -3.744894         0.652888        -2.163953
 C        -2.465850         0.234923        -1.370494
 C        -1.767495        -0.857234        -2.015161
 C        -2.397841        -1.138723        -0.654398
 C        -1.162232        -1.384925         0.255865
 C        -0.249934        -0.131113         0.304009
 O         0.944135        -0.348454         0.236985
 C        -1.181139         1.220029         0.291736
 O        -1.781108         1.435915        -0.997828
 H        -3.609118         1.495310        -2.917049
 H        -4.257956        -0.194951        -2.693951
 H        -4.506211         1.141836        -1.427060
 H        -2.158146        -1.368821        -2.884191
 H        -0.645650        -0.955706        -1.959259
 H        -3.232389        -1.773301        -0.507895
 H        -1.344625        -1.523604         1.316317
 H        -0.500126        -2.230870        -0.017719
 H        -1.889310         0.798692         1.041724
 H        -0.638312         2.102851         0.594555
