19
Iteration:  1798
 C        -3.775035         0.789854        -2.018744
 C        -2.560255         0.212306        -1.377892
 C        -1.800062        -0.824833        -2.085522
 C        -2.416744        -1.189102        -0.714616
 C        -1.211229        -1.439946         0.200237
 C        -0.260078        -0.176064         0.255622
 O         0.942155        -0.269505         0.528094
 C        -0.953413         1.209183         0.087610
 O        -1.799727         1.304626        -1.007049
 H        -3.464391         1.817945        -2.295547
 H        -4.035347         0.248992        -3.015752
 H        -4.753676         0.769091        -1.346920
 H        -2.146272        -1.129398        -3.063225
 H        -0.721284        -0.855431        -1.893809
 H        -3.283070        -1.908901        -0.600625
 H        -1.539081        -1.684533         1.200929
 H        -0.519510        -2.290232        -0.153041
 H        -1.536808         1.461826         0.951894
 H        -0.366861         2.065031        -0.127274
