19
Iteration:   234charge 0 multiplicity 1
 C        -3.968096         0.520438        -1.416069
 C        -2.491344         0.189608        -1.365841
 C        -2.495434        -1.161529        -2.187633
 C        -2.098110        -1.128484        -0.729424
 C        -0.593662        -1.199260        -0.580299
 C        -0.308249         0.002824         0.407175
 O         0.274080        -0.013192         1.466020
 C        -0.703480         1.367505        -0.228225
 O        -1.366625         1.090171        -1.525992
 H        -4.419010        -0.444867        -1.580417
 H        -4.355873         0.959909        -0.482143
 H        -4.254740         1.147976        -2.238988
 H        -3.462095        -1.471923        -2.567292
 H        -1.808316        -1.463953        -3.037998
 H        -2.714503        -1.664998         0.116082
 H        -0.084028        -2.127354        -0.199335
 H        -0.251505        -1.075830        -1.602123
 H        -1.239569         1.972176         0.466192
 H         0.158562         1.883204        -0.541395
