19
Iteration:  1485
 C        -3.831309         0.672266        -0.794372
 C        -2.453828         0.257517        -1.345638
 C        -2.400994        -0.856775        -2.330505
 C        -1.910881        -1.240880        -0.927095
 C        -0.422523        -1.417490        -0.511070
 C        -0.311364        -0.167844         0.250524
 O        -0.561139        -0.104514         1.441676
 C        -0.360840         1.227197        -0.515693
 O        -1.382755         1.225551        -1.574442
 H        -4.159979         1.680376        -1.207766
 H        -4.675816         0.008932        -1.106241
 H        -3.973787         0.750389         0.284217
 H        -3.370497        -1.250456        -2.586564
 H        -1.707880        -0.709177        -3.173239
 H        -2.515312        -1.817228        -0.240553
 H        -0.328982        -2.205300         0.255283
 H         0.318166        -1.478114        -1.226873
 H        -0.663786         1.845984         0.315409
 H         0.642047         1.585067        -0.949380
