19
Iteration:  3297
 C        -4.006089         0.566596        -1.689576
 C        -2.543113         0.325633        -1.436307
 C        -1.719142        -0.580978        -2.462571
 C        -2.194124        -1.118677        -1.092814
 C        -1.194106        -1.401305        -0.032595
 C        -0.280561        -0.230248         0.402542
 O         0.764235        -0.315482         1.029548
 C        -0.666838         1.076449        -0.277663
 O        -1.944839         1.329208        -0.699770
 H        -4.102167         1.040581        -2.721466
 H        -4.693194        -0.299397        -1.666297
 H        -4.401380         1.398604        -1.022567
 H        -2.249177        -0.936831        -3.378195
 H        -0.613824        -0.423999        -2.526916
 H        -3.025270        -1.837789        -0.988357
 H        -1.708340        -1.491942         0.966657
 H        -0.632343        -2.415770        -0.145776
 H        -0.372882         1.860972         0.483904
 H         0.117041         1.271437        -1.032030
