19
Iteration:  4050charge 0 multiplicity 1
 C        -4.010250         0.710156        -1.698824
 C        -2.621043         0.332576        -1.473772
 C        -1.923342        -0.660664        -2.453500
 C        -2.154816        -1.061636        -1.054992
 C        -1.081007        -1.483911        -0.070463
 C        -0.250546        -0.286013         0.389716
 O         0.722967        -0.356599         1.115650
 C        -0.716525         1.103053         0.024574
 O        -1.752818         1.339809        -1.023685
 H        -4.652139        -0.092536        -2.094289
 H        -4.400712         1.097510        -0.754789
 H        -3.999087         1.565040        -2.504345
 H        -2.459359        -1.035883        -3.370100
 H        -0.891946        -0.510330        -2.675652
 H        -3.035963        -1.848525        -1.045080
 H        -1.448794        -1.808974         0.916699
 H        -0.394953        -2.309117        -0.351954
 H        -1.050653         1.566604         0.924703
 H         0.088885         1.834717        -0.300920
