19
Iteration:  4129charge 0 multiplicity 1
 C        -4.086759         0.685167        -1.778896
 C        -2.577395         0.279368        -1.456575
 C        -1.867573        -0.471947        -2.552069
 C        -2.179132        -1.132204        -1.076142
 C        -1.144583        -1.454141        -0.009046
 C        -0.169072        -0.266022         0.448975
 O         0.709212        -0.373018         1.287320
 C        -0.560041         1.068655        -0.353511
 O        -1.910795         1.318572        -0.739659
 H        -4.406204        -0.189914        -2.348938
 H        -4.608217         0.866387        -0.805160
 H        -4.021944         1.587959        -2.413034
 H        -2.415809        -1.012811        -3.267664
 H        -0.838366        -0.220781        -2.914146
 H        -2.898578        -1.873847        -1.043942
 H        -1.627955        -1.481131         0.952403
 H        -0.544761        -2.382654        -0.206792
 H        -0.211764         1.915225         0.114014
 H        -0.006321         1.188644        -1.312768
