19
Iteration:  1277charge 0 multiplicity 1
 C        -3.876374         0.748521        -1.824221
 C        -2.519335         0.126936        -1.471093
 C        -1.861936        -0.923233        -2.343733
 C        -2.285527        -1.230019        -0.930516
 C        -1.184542        -1.322350         0.151056
 C        -0.291532        -0.140095         0.381666
 O         0.900522        -0.289662         0.673747
 C        -0.939587         1.346986         0.196315
 O        -1.736818         1.306213        -1.035136
 H        -3.660856         1.678109        -2.370820
 H        -4.474148         0.035755        -2.396316
 H        -4.408689         0.978581        -0.950757
 H        -2.592690        -1.291424        -3.092223
 H        -0.776447        -0.900066        -2.547260
 H        -3.188954        -1.825814        -0.793452
 H        -1.798728        -1.512842         1.102506
 H        -0.577792        -2.233967        -0.092707
 H        -1.450030         1.595907         1.124141
 H         0.010018         1.962854         0.038288
