19
Iteration:  4335charge 0 multiplicity 1
 C        -3.971780         0.595941        -1.948874
 C        -2.604259         0.335615        -1.507818
 C        -1.649097        -0.517783        -2.306334
 C        -2.232633        -1.055812        -0.993958
 C        -1.307192        -1.297064         0.204931
 C        -0.223138        -0.380462         0.302408
 O         0.883649        -0.503840         0.805862
 C        -0.702827         1.107722        -0.019568
 O        -1.964835         1.374446        -0.816179
 H        -4.573132        -0.297825        -2.184297
 H        -4.463894         0.981650        -1.094485
 H        -4.117162         1.326087        -2.730389
 H        -2.013672        -1.074455        -3.238426
 H        -0.593495        -0.264683        -2.275014
 H        -2.957938        -1.818613        -1.089600
 H        -1.773886        -1.157529         1.182169
 H        -0.861342        -2.254723         0.447377
 H        -0.948771         1.475480         0.983578
 H         0.079781         1.726641        -0.443942
