19
Iteration:  4289
 C        -3.819962         0.729093        -1.725505
 C        -2.469568         0.212716        -1.448850
 C        -1.773005        -0.674227        -2.418337
 C        -2.251766        -1.276733        -1.044495
 C        -1.228339        -1.386308         0.030646
 C        -0.324093        -0.179060         0.330323
 O         0.743542        -0.406192         0.875536
 C        -0.793096         1.227178        -0.007646
 O        -1.862243         1.368262        -0.851014
 H        -4.518927         0.067978        -2.164047
 H        -4.375168         1.172768        -0.990069
 H        -3.810040         1.521675        -2.520137
 H        -2.291490        -0.821590        -3.352897
 H        -0.694099        -0.615157        -2.510276
 H        -3.106470        -2.017364        -1.036570
 H        -1.755144        -1.506114         1.031459
 H        -0.690475        -2.289599         0.070576
 H        -0.900448         1.730610         0.990742
 H         0.143686         1.561594        -0.340224
