19
Iteration:  3295charge 0 multiplicity 1
 C        -4.013962         0.554351        -1.704108
 C        -2.537211         0.313644        -1.445226
 C        -1.720212        -0.569984        -2.450152
 C        -2.199084        -1.110271        -1.090688
 C        -1.200904        -1.379117        -0.029513
 C        -0.280900        -0.218226         0.404148
 O         0.768359        -0.335451         1.025778
 C        -0.654963         1.087111        -0.284312
 O        -1.945244         1.321163        -0.678086
 H        -4.088192         1.031901        -2.685653
 H        -4.714635        -0.333158        -1.650290
 H        -4.359218         1.387994        -1.090063
 H        -2.261953        -0.946555        -3.363236
 H        -0.642257        -0.455668        -2.568325
 H        -2.931597        -1.847382        -1.006611
 H        -1.743863        -1.477633         0.919950
 H        -0.676385        -2.348402        -0.124348
 H        -0.401763         1.841546         0.486568
 H         0.118181         1.280782        -1.103919
