19
Iteration:  1286
 C        -3.857213         0.770153        -1.808847
 C        -2.510944         0.194993        -1.441267
 C        -1.916017        -0.931817        -2.365964
 C        -2.327119        -1.213241        -0.935022
 C        -1.146939        -1.415358         0.108056
 C        -0.234203        -0.127439         0.427186
 O         0.918524        -0.221035         0.797584
 C        -0.932414         1.206090         0.080844
 O        -1.777827         1.312579        -1.043463
 H        -3.699404         1.617821        -2.492118
 H        -4.640510         0.241974        -2.384789
 H        -4.346795         1.142074        -0.869372
 H        -2.548252        -1.362857        -3.151561
 H        -0.872902        -0.807434        -2.786291
 H        -3.228506        -1.889720        -0.788082
 H        -1.640933        -1.685784         1.047597
 H        -0.474656        -2.232605        -0.093920
 H        -1.378950         1.729644         0.987016
 H        -0.127190         2.013647        -0.154688
