19
Iteration:   718charge 0 multiplicity 1
 C        -3.890764         0.726035        -1.371459
 C        -2.446077         0.235691        -1.510453
 C        -2.221503        -0.985948        -2.385336
 C        -2.144068        -1.168456        -0.892940
 C        -0.762086        -1.232143        -0.335479
 C        -0.366102        -0.064273         0.482198
 O         0.612210        -0.025600         1.184307
 C        -1.195115         1.162669         0.032583
 O        -1.354235         1.003826        -1.411346
 H        -4.297158         1.124761        -2.297922
 H        -4.564055        -0.074860        -1.012802
 H        -4.008824         1.650834        -0.683188
 H        -3.034463        -1.409359        -2.991380
 H        -1.196263        -1.057622        -2.888146
 H        -2.901010        -1.628857        -0.242068
 H        -0.617608        -2.277905         0.065067
 H        -0.094805        -1.287215        -1.227132
 H        -2.169762         1.108351         0.584171
 H        -0.733798         2.150993         0.254772
