19
Iteration:  4949charge 0 multiplicity 1
 C        -3.861573         0.749464        -2.082024
 C        -2.560017         0.284821        -1.419459
 C        -1.597422        -0.630355        -2.235119
 C        -2.269229        -1.148083        -0.974800
 C        -1.327864        -1.379203         0.215175
 C        -0.242375        -0.315706         0.325939
 O         0.917198        -0.415644         0.619815
 C        -0.799956         1.144055        -0.019070
 O        -2.024614         1.324419        -0.620777
 H        -4.695100         0.026424        -2.204589
 H        -4.268076         1.589981        -1.433581
 H        -3.671882         1.243585        -2.946759
 H        -2.030416        -1.161828        -3.040715
 H        -0.535478        -0.510131        -2.405127
 H        -3.194929        -1.736304        -0.987049
 H        -2.035802        -1.446465         1.107724
 H        -0.803254        -2.322789         0.064413
 H        -0.963741         1.665840         0.916919
 H         0.004383         1.678857        -0.614308
