19
Iteration:  2905
 C        -3.471567         0.804533        -0.641125
 C        -2.447768         0.139548        -1.369533
 C        -2.477877        -0.920716        -2.474641
 C        -1.874461        -1.244837        -1.121004
 C        -0.416262        -1.288075        -0.545654
 C        -0.420869        -0.036479         0.354371
 O        -0.484484        -0.104428         1.596302
 C        -0.777569         1.281387        -0.412979
 O        -1.289712         0.966510        -1.721821
 H        -3.543496         1.855678        -0.872561
 H        -4.490076         0.467452        -0.956827
 H        -3.405785         0.495251         0.401681
 H        -3.575480        -1.346232        -2.528348
 H        -1.798890        -0.783377        -3.363712
 H        -2.599527        -1.791836        -0.550841
 H        -0.417381        -2.198930         0.022056
 H         0.508798        -1.130587        -1.140884
 H        -1.545546         1.865327         0.180396
 H         0.057177         1.973717        -0.504181
