19
Iteration:  2044
 C        -3.894823         0.817602        -1.439775
 C        -2.541788         0.173861        -1.476462
 C        -2.238869        -0.836748        -2.436420
 C        -2.171960        -1.300208        -0.988738
 C        -0.849329        -1.517833        -0.187640
 C        -0.352098        -0.093307         0.479964
 O         0.580913        -0.125307         1.247032
 C        -0.898593         1.332502        -0.012233
 O        -1.401117         1.138709        -1.380187
 H        -4.159253         1.220242        -2.482969
 H        -4.775072         0.132418        -1.377614
 H        -4.102381         1.604418        -0.660285
 H        -3.076433        -1.121057        -3.124128
 H        -1.402147        -0.751840        -3.090594
 H        -2.988097        -1.962999        -0.687665
 H        -1.007607        -2.189517         0.625926
 H        -0.051080        -1.775625        -0.877577
 H        -1.659084         1.683477         0.739474
 H        -0.088116         2.065530        -0.035178
