19
Iteration:  3411charge 0 multiplicity 1
 C        -3.942261         0.838531        -1.263438
 C        -2.521406         0.255315        -1.420447
 C        -2.144735        -0.790469        -2.432304
 C        -2.101588        -1.194295        -1.033727
 C        -0.751474        -1.383668        -0.396651
 C        -0.295025        -0.199651         0.352966
 O         0.341828        -0.269032         1.383981
 C        -0.874865         1.207216        -0.100534
 O        -1.475067         1.171051        -1.352873
 H        -3.974619         1.879356        -1.043175
 H        -4.523269         0.511221        -2.163215
 H        -4.385086         0.333016        -0.423703
 H        -2.830890        -1.075977        -3.254235
 H        -1.106769        -0.725970        -2.716481
 H        -2.874256        -1.821532        -0.627228
 H        -0.632411        -2.275890         0.258175
 H         0.014237        -1.506736        -1.242239
 H        -1.682776         1.523400         0.565975
 H        -0.111253         1.960035        -0.157474
