19
Iteration:  2693
 C        -3.926595         0.872393        -1.646041
 C        -2.526113         0.173791        -1.457634
 C        -2.160476        -0.978165        -2.387097
 C        -2.192995        -1.174879        -0.891877
 C        -0.870901        -1.329377        -0.256670
 C        -0.342544        -0.112781         0.564487
 O         0.804607        -0.165722         1.055883
 C        -1.086832         1.223349         0.139208
 O        -1.491681         1.081789        -1.247509
 H        -3.661161         1.858787        -2.108616
 H        -4.543968         0.524266        -2.438197
 H        -4.464990         1.006340        -0.692905
 H        -2.980869        -1.411089        -2.910529
 H        -1.220090        -0.928767        -2.864878
 H        -3.007272        -1.773811        -0.573668
 H        -0.748072        -2.289095         0.307204
 H        -0.207422        -1.298660        -1.160789
 H        -2.069242         1.323630         0.683078
 H        -0.624800         2.265189         0.219179
