19
Iteration:  1763
 C        -3.934035         0.549744        -1.731133
 C        -2.450647         0.291602        -1.576415
 C        -1.774335        -0.819370        -2.324874
 C        -2.195187        -1.035514        -0.899709
 C        -1.340366        -1.315678         0.321875
 C        -0.302346        -0.207144         0.353919
 O         0.870964        -0.380476         0.625463
 C        -0.906962         1.237141         0.094472
 O        -1.704725         1.365071        -1.081013
 H        -4.172287         1.451526        -2.353651
 H        -4.440145        -0.289787        -2.293028
 H        -4.511695         0.803206        -0.706265
 H        -2.296232        -1.461403        -3.092941
 H        -0.703446        -0.735212        -2.606770
 H        -3.096755        -1.629685        -0.913046
 H        -1.968649        -1.246045         1.180784
 H        -0.930669        -2.370561         0.292806
 H        -1.408553         1.412353         1.050544
 H        -0.084990         1.939429         0.020281
