19
Iteration:  2336
 C        -3.888906         0.888005        -1.405064
 C        -2.538884         0.140758        -1.510464
 C        -2.219845        -1.133709        -2.451800
 C        -2.180463        -1.291166        -0.921344
 C        -0.741488        -1.334507        -0.350563
 C        -0.274130        -0.061398         0.351772
 O         0.395518        -0.066045         1.355947
 C        -0.804981         1.209877        -0.094946
 O        -1.522815         1.200259        -1.278649
 H        -3.541329         1.934119        -1.445560
 H        -4.651594         0.701441        -2.125280
 H        -4.293108         0.777873        -0.417812
 H        -3.101560        -1.388043        -3.072830
 H        -1.293911        -1.222531        -3.001429
 H        -3.012321        -1.894406        -0.447818
 H        -0.576810        -2.040081         0.434699
 H        -0.009491        -1.363810        -1.145608
 H        -1.535922         1.383151         0.680718
 H         0.021268         1.982493         0.055997
