19
Iteration:  4360charge 0 multiplicity 1
 C        -3.824958         0.575788        -1.899235
 C        -2.509817         0.292067        -1.377094
 C        -1.546033        -0.645608        -2.273058
 C        -2.294267        -1.157805        -1.044689
 C        -1.428831        -1.345683         0.185186
 C        -0.343788        -0.235315         0.282155
 O         0.783540        -0.517112         0.643576
 C        -0.671318         1.287977        -0.080840
 O        -1.967239         1.400737        -0.646294
 H        -4.270338        -0.262304        -2.475525
 H        -4.656841         0.863703        -1.143279
 H        -3.780464         1.384039        -2.599401
 H        -1.919815        -0.750747        -3.273959
 H        -0.415244        -0.700506        -2.139789
 H        -3.058928        -1.927047        -1.185278
 H        -2.037282        -1.384724         1.079401
 H        -0.737072        -2.221939         0.484369
 H        -0.623694         1.881862         0.809839
 H         0.046473         1.752484        -0.854504
