19
Iteration:  4174charge 0 multiplicity 1
 C        -3.918063         0.659802        -1.554614
 C        -2.502791         0.255704        -1.485876
 C        -1.598481        -0.570157        -2.448616
 C        -2.171993        -1.155863        -1.194018
 C        -1.367598        -1.393556         0.025906
 C        -0.319424        -0.181022         0.245170
 O         0.513015        -0.284303         1.127273
 C        -0.481923         1.114439        -0.447838
 O        -1.928641         1.183060        -0.546920
 H        -4.556604        -0.229010        -1.849271
 H        -4.147425         1.051085        -0.446526
 H        -4.181641         1.412195        -2.259408
 H        -2.056054        -0.656301        -3.450859
 H        -0.531714        -0.405372        -2.539339
 H        -2.919991        -1.759069        -1.510805
 H        -1.904009        -1.455371         0.971457
 H        -0.603658        -2.235266        -0.099300
 H        -0.018751         2.027055        -0.185594
 H         0.064948         1.146020        -1.410790
