19
Iteration:  4194
 C        -3.959563         0.673298        -1.581874
 C        -2.516105         0.291410        -1.520661
 C        -1.696193        -0.574794        -2.488134
 C        -2.208247        -1.220399        -1.178699
 C        -1.210934        -1.351138        -0.016546
 C        -0.241431        -0.276805         0.332979
 O         0.639593        -0.331856         1.219274
 C        -0.609193         1.141701        -0.412394
 O        -1.948095         1.289504        -0.663197
 H        -4.670547         0.016408        -2.103696
 H        -4.375089         1.023758        -0.637969
 H        -4.044598         1.561483        -2.203742
 H        -2.034375        -0.919533        -3.460116
 H        -0.593728        -0.580236        -2.531253
 H        -2.967582        -1.961435        -1.150977
 H        -1.876533        -1.414582         0.818332
 H        -0.864907        -2.413913        -0.024648
 H        -0.273404         1.882402         0.241815
 H         0.115344         1.315859        -1.277974
