19
Iteration:   683
 C        -3.757390         0.825113        -1.329093
 C        -2.451381         0.101803        -1.537249
 C        -2.203818        -1.004367        -2.568820
 C        -2.079801        -1.342468        -1.105107
 C        -0.927147        -1.467737        -0.100352
 C        -0.317495        -0.033455         0.419353
 O         0.714171         0.145369         1.032000
 C        -1.184066         1.216951         0.148502
 O        -1.526773         1.123167        -1.272759
 H        -3.704140         1.559188        -2.173568
 H        -4.639423         0.128372        -1.486113
 H        -3.782786         1.202273        -0.251585
 H        -3.186062        -1.347492        -3.037043
 H        -1.345525        -1.020916        -3.305588
 H        -2.901917        -1.857724        -0.637800
 H        -1.465502        -1.702991         0.872260
 H        -0.079400        -2.132933        -0.177623
 H        -2.081480         1.284879         0.858112
 H        -0.557843         2.079388         0.212944
