19
Iteration:  2660charge 0 multiplicity 1
 C        -3.948979         0.675477        -1.743837
 C        -2.456323         0.254737        -1.499739
 C        -2.049365        -0.857251        -2.409627
 C        -2.260826        -1.147243        -0.904321
 C        -1.061097        -1.393557        -0.088501
 C        -0.240828        -0.178416         0.363144
 O         0.838813        -0.128435         0.920364
 C        -1.049046         1.162553         0.210095
 O        -1.529158         1.247280        -1.117304
 H        -4.049639         1.534853        -2.439212
 H        -4.548815        -0.174288        -2.010787
 H        -4.374073         1.081205        -0.814708
 H        -2.849614        -1.144175        -3.067666
 H        -1.053571        -0.945641        -2.811872
 H        -3.139041        -1.749287        -0.735595
 H        -1.325212        -1.587145         0.978801
 H        -0.446074        -2.274018        -0.388995
 H        -1.806695         1.164271         1.036284
 H        -0.359761         2.035376         0.432421
