19
Iteration:   892
 C        -3.736082         0.589428        -0.632764
 C        -2.478312         0.179694        -1.375836
 C        -2.295266        -0.853672        -2.456224
 C        -1.901436        -1.192298        -1.009910
 C        -0.492576        -1.282312        -0.589741
 C        -0.454116        -0.090502         0.350234
 O        -0.476504        -0.049879         1.554802
 C        -0.528401         1.275093        -0.525514
 O        -1.360011         1.053562        -1.612747
 H        -4.393971         1.232696        -1.172024
 H        -4.380755        -0.213295        -0.295309
 H        -3.429186         1.155147         0.280005
 H        -2.993642        -1.539680        -3.036783
 H        -1.474959        -0.564615        -3.091142
 H        -2.629856        -1.877407        -0.599665
 H        -0.160064        -2.172764        -0.042583
 H         0.060736        -1.036854        -1.414017
 H        -0.898630         2.108660         0.119093
 H         0.477137         1.376844        -0.785592
