19
Iteration:  4204charge 0 multiplicity 1
 C        -4.027889         0.710091        -1.675750
 C        -2.575361         0.234666        -1.483191
 C        -1.795316        -0.569248        -2.470306
 C        -2.129331        -1.158432        -1.136686
 C        -1.186187        -1.379764         0.009822
 C        -0.237800        -0.250795         0.355960
 O         0.634812        -0.354317         1.170853
 C        -0.538000         1.093618        -0.277867
 O        -1.922708         1.293650        -0.759570
 H        -4.511816        -0.051860        -2.274341
 H        -4.506394         0.836252        -0.731115
 H        -3.928346         1.636725        -2.254797
 H        -2.328509        -0.799876        -3.371039
 H        -0.701073        -0.373153        -2.556287
 H        -2.864427        -1.956400        -1.227592
 H        -1.740472        -1.373106         0.941135
 H        -0.513953        -2.251823        -0.024573
 H        -0.417063         1.929269         0.386292
 H         0.174097         1.242267        -1.151554
