19
Iteration:  3814charge 0 multiplicity 1
 C        -3.935932         0.747865        -1.298229
 C        -2.510638         0.186678        -1.509622
 C        -1.982867        -0.536572        -2.632906
 C        -2.146144        -1.222351        -1.270890
 C        -1.115740        -1.408864        -0.132860
 C        -0.277253        -0.193994         0.455043
 O         0.592800        -0.350178         1.332809
 C        -0.800048         1.152085        -0.094007
 O        -1.594885         1.261189        -1.208983
 H        -4.611657        -0.039828        -1.697686
 H        -4.182875         0.866588        -0.156012
 H        -4.285188         1.559983        -1.887504
 H        -2.403592        -1.139616        -3.423736
 H        -0.969056        -0.064596        -2.873146
 H        -2.989797        -1.906567        -1.107760
 H        -1.648273        -1.764466         0.788152
 H        -0.233268        -2.102723        -0.291030
 H        -1.388918         1.480732         0.733917
 H         0.159376         1.865575        -0.104421
