19
Iteration:  1119charge 0 multiplicity 1
 C        -3.816512         0.624799        -2.083125
 C        -2.509025         0.287421        -1.398110
 C        -1.775469        -0.868513        -2.050035
 C        -2.293739        -1.125656        -0.667051
 C        -1.163255        -1.338224         0.220307
 C        -0.303517        -0.176487         0.257247
 O         0.913808        -0.336771         0.340014
 C        -1.131534         1.191659         0.279610
 O        -1.719265         1.400652        -1.010863
 H        -3.578788         1.411124        -2.820618
 H        -4.166115        -0.268278        -2.622955
 H        -4.597497         0.915494        -1.297190
 H        -2.185087        -1.412366        -2.892321
 H        -0.688976        -0.643316        -2.133879
 H        -3.182383        -1.707919        -0.628184
 H        -1.456324        -1.542926         1.308641
 H        -0.656815        -2.232186        -0.164865
 H        -1.961134         1.302553         1.002054
 H        -0.526971         2.053619         0.423972
