19
Iteration:  3330charge 0 multiplicity 1
 C        -3.996143         0.761917        -1.551348
 C        -2.588268         0.257759        -1.426110
 C        -1.811400        -0.620711        -2.372853
 C        -2.123114        -1.256481        -1.016264
 C        -1.018691        -1.519600        -0.100242
 C        -0.355800        -0.253399         0.359481
 O         0.617928        -0.252690         1.120624
 C        -0.668439         1.115688        -0.256309
 O        -1.842485         1.355877        -0.985954
 H        -3.866763         1.658986        -2.263763
 H        -4.740898         0.136303        -2.108652
 H        -4.485613         0.823230        -0.496508
 H        -2.414987        -1.012907        -3.210088
 H        -0.739683        -0.342130        -2.668263
 H        -3.032983        -1.884501        -1.159842
 H        -1.336871        -1.974583         0.874932
 H        -0.196005        -2.218848        -0.587505
 H        -0.991484         1.809508         0.628198
 H         0.319545         1.565539        -0.627697
