19
Iteration:  3445
 C        -3.679842         0.907439        -1.052753
 C        -2.463876         0.184967        -1.556073
 C        -2.425902        -0.901930        -2.601844
 C        -2.024043        -1.198390        -1.193756
 C        -0.617471        -1.282003        -0.503831
 C        -0.423828        -0.133132         0.500945
 O         0.287629        -0.176128         1.512922
 C        -1.070437         1.201821        -0.043784
 O        -1.362851         1.009658        -1.396762
 H        -3.504997         1.951117        -0.927149
 H        -4.599969         0.962609        -1.706712
 H        -3.994310         0.452637        -0.156556
 H        -3.396362        -1.292822        -2.967378
 H        -1.532787        -0.866699        -3.325479
 H        -2.697407        -1.802592        -0.649467
 H        -0.591411        -2.271006        -0.029211
 H         0.274950        -1.255551        -1.203708
 H        -1.861997         1.562965         0.614178
 H        -0.241397         1.901740         0.068172
