19
Iteration:  3403
 C        -3.961952         0.737710        -1.316332
 C        -2.524751         0.291305        -1.465800
 C        -2.142759        -0.756732        -2.445321
 C        -2.124010        -1.167641        -0.961485
 C        -0.754834        -1.446110        -0.424527
 C        -0.337111        -0.195413         0.402301
 O         0.399463        -0.260617         1.382588
 C        -0.801770         1.186294        -0.040071
 O        -1.519134         1.232839        -1.364527
 H        -3.956718         1.805823        -1.199550
 H        -4.519704         0.561080        -2.266239
 H        -4.439186         0.292022        -0.476117
 H        -2.878146        -1.143372        -3.218210
 H        -1.192377        -0.646328        -3.061292
 H        -2.924850        -1.711309        -0.520473
 H        -0.801525        -2.269574         0.263937
 H         0.014062        -1.661326        -1.125981
 H        -1.427707         1.552674         0.785462
 H        -0.007635         1.902636        -0.289253
