19
Iteration:  4486charge 0 multiplicity 1
 C        -3.894064         0.613348        -1.891541
 C        -2.523669         0.301132        -1.443465
 C        -1.516652        -0.536322        -2.152644
 C        -2.181056        -1.112912        -0.982373
 C        -1.415337        -1.406350         0.284974
 C        -0.379576        -0.279333         0.250249
 O         0.768802        -0.464365         0.572021
 C        -0.716545         1.145760        -0.093949
 O        -1.934716         1.325036        -0.727678
 H        -4.606549        -0.117498        -2.342627
 H        -4.404670         1.195382        -1.169911
 H        -3.879582         1.383463        -2.777298
 H        -1.734786        -0.773018        -3.189702
 H        -0.415672        -0.147951        -2.138527
 H        -2.910243        -1.804637        -1.285600
 H        -1.966344        -1.337386         1.291743
 H        -0.894230        -2.297301         0.146069
 H        -0.996459         1.706366         0.901242
 H         0.167015         1.741048        -0.436770
