19
Iteration:  1610
 C        -3.747970         1.027603        -1.354857
 C        -2.588763         0.109902        -1.526210
 C        -2.357289        -1.098005        -2.421185
 C        -2.162280        -1.205563        -0.851803
 C        -0.586566        -1.204575        -0.465712
 C        -0.351417        -0.087869         0.481438
 O         0.417677        -0.120746         1.424189
 C        -0.982538         1.150014        -0.070929
 O        -1.455348         0.991681        -1.432890
 H        -3.584456         1.855268        -1.975073
 H        -4.703600         0.634202        -1.598957
 H        -3.844369         1.498047        -0.377438
 H        -3.274752        -1.517807        -2.854624
 H        -1.428043        -0.912536        -3.024722
 H        -2.838156        -1.844383        -0.326785
 H        -0.312098        -2.224113        -0.262953
 H        -0.115210        -1.001964        -1.490980
 H        -1.706005         1.491585         0.775287
 H        -0.083992         1.810204        -0.046868
