19
Iteration:  1361
 C        -3.836131         0.706776        -1.243894
 C        -2.462347         0.211397        -1.572752
 C        -2.266497        -0.977525        -2.493776
 C        -2.190911        -1.133341        -1.012211
 C        -0.861729        -1.251486        -0.288481
 C        -0.421263        -0.077537         0.497644
 O         0.430960        -0.208462         1.370925
 C        -0.758533         1.224745        -0.099318
 O        -1.407124         1.170059        -1.400044
 H        -4.431671         1.221330        -2.032941
 H        -4.489571        -0.213247        -1.210744
 H        -4.051964         1.305158        -0.289835
 H        -3.145031        -1.357903        -3.061776
 H        -1.387903        -1.156545        -3.120663
 H        -3.084696        -1.632547        -0.526288
 H        -0.824309        -2.177744         0.206595
 H        -0.152020        -1.409177        -1.082935
 H        -1.271484         1.939942         0.580040
 H         0.216976         1.692824        -0.278380
