19
Iteration:  2032charge 0 multiplicity 1
 C        -3.925687         0.806933        -1.548778
 C        -2.474421         0.223917        -1.480256
 C        -2.264612        -0.961896        -2.497384
 C        -2.186955        -1.284648        -1.024499
 C        -0.923379        -1.369096        -0.181199
 C        -0.401308        -0.075356         0.566709
 O         0.704157        -0.151504         1.152328
 C        -0.917354         1.243051         0.064607
 O        -1.444789         1.184510        -1.282442
 H        -3.981530         1.500361        -2.453433
 H        -4.586234        -0.094403        -1.495160
 H        -4.088848         1.450040        -0.649073
 H        -3.223626        -1.380633        -2.904238
 H        -1.321832        -1.033029        -3.030446
 H        -3.034124        -1.801362        -0.613973
 H        -0.985528        -2.105058         0.587953
 H         0.011115        -1.674948        -0.648444
 H        -1.657894         1.816819         0.674752
 H         0.038924         1.832234        -0.016229
