19
Iteration:  4669charge 0 multiplicity 1
 C        -4.068932         0.732640        -1.497040
 C        -2.591219         0.212187        -1.534090
 C        -1.654807        -0.465513        -2.457733
 C        -2.222548        -1.162240        -1.231132
 C        -1.221080        -1.438255        -0.021764
 C        -0.292010        -0.236006         0.383596
 O         0.588414        -0.315413         1.256895
 C        -0.517259         1.009198        -0.447250
 O        -1.849328         1.293166        -0.772611
 H        -4.866828         0.051121        -1.875448
 H        -4.177147         0.981536        -0.501122
 H        -3.937280         1.705740        -2.090799
 H        -1.934129        -0.866992        -3.435241
 H        -0.591004        -0.275230        -2.396948
 H        -2.838403        -2.000461        -1.206138
 H        -1.798676        -1.611424         0.951867
 H        -0.509153        -2.402402        -0.075017
 H        -0.145665         1.833211         0.150070
 H        -0.038835         1.148501        -1.425814
