19
Iteration:  2913
 C        -3.548659         0.798729        -0.643966
 C        -2.419033         0.135430        -1.420054
 C        -2.483183        -0.905807        -2.498206
 C        -1.879201        -1.170843        -1.141331
 C        -0.439852        -1.234810        -0.484678
 C        -0.491766        -0.095703         0.377572
 O        -0.352079        -0.096697         1.572793
 C        -0.834573         1.293093        -0.372443
 O        -1.259767         0.930586        -1.700041
 H        -3.348255         1.820449        -1.031260
 H        -4.556038         0.511567        -1.030442
 H        -3.592196         0.767836         0.460999
 H        -3.374249        -1.431277        -2.745624
 H        -2.047176        -0.977920        -3.499922
 H        -2.503539        -1.908624        -0.560874
 H        -0.347932        -2.160471         0.239956
 H         0.388020        -1.265311        -1.213679
 H        -1.626591         1.584503         0.263785
 H         0.121808         1.903608        -0.495969
