19
Iteration:  2073charge 0 multiplicity 1
 C        -3.852193         0.867228        -1.136976
 C        -2.562842         0.203593        -1.584578
 C        -2.171134        -0.931472        -2.454436
 C        -2.107894        -1.139606        -0.989414
 C        -0.751920        -1.315415        -0.303899
 C        -0.289288        -0.131311         0.365198
 O         0.295755        -0.100150         1.447463
 C        -0.826588         1.072272        -0.174581
 O        -1.459409         1.112152        -1.486664
 H        -4.319876         1.318208        -2.014922
 H        -4.599986         0.128600        -0.768668
 H        -3.776131         1.658776        -0.424538
 H        -2.962695        -1.477579        -3.065495
 H        -1.226813        -0.850603        -3.036129
 H        -2.866537        -1.750452        -0.568433
 H        -1.045543        -2.019238         0.527944
 H        -0.027960        -1.819779        -1.011502
 H        -1.539345         1.187153         0.667939
 H        -0.087539         1.963258        -0.177857
