19
Iteration:  3932charge 0 multiplicity 1
 C        -3.721571         0.982265        -1.657464
 C        -2.402072         0.217927        -1.407886
 C        -2.180959        -0.771093        -2.487462
 C        -2.301345        -1.251039        -1.114997
 C        -0.944142        -1.401223        -0.187133
 C        -0.373694        -0.117282         0.442178
 O         0.777960        -0.165287         0.872161
 C        -1.311533         1.093902         0.375351
 O        -1.364157         1.016600        -1.052934
 H        -4.376346         0.480564        -2.377287
 H        -4.199039         1.161511        -0.678541
 H        -3.392153         1.943862        -2.181188
 H        -2.937365        -1.063636        -3.164222
 H        -1.228899        -0.526702        -3.022567
 H        -3.289571        -1.740979        -0.839744
 H        -1.060994        -2.057057         0.719034
 H        -0.100163        -1.948383        -0.774585
 H        -2.162980         0.969374         1.126203
 H        -0.846125         2.143197         0.693434
