19
Iteration:  2283
 C        -3.886139         0.744834        -1.049309
 C        -2.456306         0.226070        -1.425631
 C        -2.317433        -0.922093        -2.405397
 C        -2.019322        -1.200027        -0.960689
 C        -0.624119        -1.328415        -0.488116
 C        -0.419556        -0.113671         0.367721
 O         0.030452        -0.076735         1.489162
 C        -0.788107         1.252032        -0.252451
 O        -1.281699         1.027581        -1.562603
 H        -4.245944         1.544265        -1.712305
 H        -4.487309        -0.124185        -1.056031
 H        -3.968269         1.117690        -0.029483
 H        -3.185319        -1.431016        -2.806596
 H        -1.529688        -0.850943        -3.133873
 H        -2.786377        -1.732577        -0.288004
 H        -0.280873        -2.235728         0.025371
 H         0.177810        -1.000747        -1.296680
 H        -1.527617         1.736677         0.380313
 H         0.165300         1.887178        -0.183193
