19
Iteration:   685
 C        -3.751955         0.816603        -1.338448
 C        -2.441928         0.115353        -1.544678
 C        -2.235247        -1.014105        -2.579744
 C        -2.079955        -1.346036        -1.103925
 C        -0.919162        -1.445020        -0.105443
 C        -0.319091        -0.032765         0.415186
 O         0.714785         0.138341         1.045609
 C        -1.204770         1.227966         0.157223
 O        -1.510791         1.127001        -1.271844
 H        -3.728864         1.532938        -2.153867
 H        -4.638999         0.138283        -1.407364
 H        -3.718701         1.216044        -0.241385
 H        -3.184122        -1.416356        -3.029407
 H        -1.341269        -1.071464        -3.324771
 H        -2.885995        -1.876811        -0.586220
 H        -1.474627        -1.788053         0.888073
 H        -0.023705        -2.205248        -0.260751
 H        -2.087440         1.291604         0.860419
 H        -0.554285         2.110141         0.221211
