19
Iteration:  3529
 C        -3.855581         0.735659        -1.043559
 C        -2.433521         0.214760        -1.365158
 C        -2.307521        -0.793233        -2.520661
 C        -1.977164        -1.228683        -1.021854
 C        -0.508503        -1.325216        -0.602820
 C        -0.342896        -0.174333         0.402760
 O        -0.192150        -0.298851         1.585392
 C        -0.526755         1.215518        -0.334485
 O        -1.563815         1.283221        -1.351468
 H        -4.251145         1.157687        -1.998427
 H        -4.471172        -0.129267        -0.662411
 H        -3.897989         1.672767        -0.401903
 H        -3.174587        -1.187311        -2.976098
 H        -1.516306        -0.643549        -3.214525
 H        -2.646057        -1.935837        -0.588273
 H        -0.337268        -2.341937        -0.209278
 H         0.123295        -1.222986        -1.514548
 H        -0.641963         1.928836         0.544541
 H         0.494895         1.249977        -0.718440
