19
Iteration:  1866
 C        -3.780611         0.682431        -1.924004
 C        -2.470952         0.216637        -1.397738
 C        -1.717427        -0.830200        -2.166212
 C        -2.332473        -1.149275        -0.807300
 C        -1.270674        -1.285797         0.252267
 C        -0.329472        -0.144876         0.274911
 O         0.838279        -0.318509         0.370300
 C        -1.007458         1.169438         0.210383
 O        -1.713563         1.315419        -0.985277
 H        -3.695240         1.362875        -2.822039
 H        -4.566388        -0.123518        -2.157528
 H        -4.318351         1.292704        -1.126290
 H        -2.080147        -1.280105        -3.113446
 H        -0.640224        -0.795097        -2.046384
 H        -3.203189        -1.848993        -0.750098
 H        -1.816386        -1.388983         1.224119
 H        -0.718046        -2.225418         0.092255
 H        -1.677255         1.240511         1.084890
 H        -0.177246         1.949890         0.290951
