19
Iteration:   348
 C        -3.911838         0.652633        -1.430000
 C        -2.465533         0.087848        -1.526879
 C        -1.967490        -1.025413        -2.399542
 C        -2.126704        -1.230219        -0.942204
 C        -1.067102        -1.263967         0.075551
 C        -0.333020         0.014300         0.360509
 O         0.773996        -0.053388         0.814744
 C        -1.140241         1.239791         0.090488
 O        -1.513609         1.204029        -1.310410
 H        -3.967329         1.585193        -0.854649
 H        -4.384930         0.819696        -2.393760
 H        -4.647147         0.063021        -0.806161
 H        -2.627265        -1.663234        -2.994356
 H        -0.958206        -0.866814        -2.794088
 H        -2.882488        -1.887243        -0.674971
 H        -1.561040        -1.434706         1.024735
 H        -0.279327        -2.120308        -0.039606
 H        -2.035168         1.286823         0.663058
 H        -0.477438         2.146438         0.206970
