19
Iteration:  2440charge 0 multiplicity 1
 C        -3.959674         0.770343        -1.590340
 C        -2.518913         0.219748        -1.402947
 C        -1.745229        -0.763511        -2.306350
 C        -2.075941        -1.190542        -0.893031
 C        -1.178864        -1.535319         0.148102
 C        -0.435124        -0.173900         0.402002
 O         0.769557        -0.150291         0.643553
 C        -1.102647         1.180929         0.089394
 O        -1.529019         1.261971        -1.252145
 H        -4.181705         1.184891        -2.575321
 H        -4.771135         0.017123        -1.375951
 H        -4.041518         1.573301        -0.827971
 H        -2.171099        -1.271145        -3.233289
 H        -0.739424        -0.327314        -2.502785
 H        -2.921952        -1.875975        -0.930658
 H        -1.694797        -1.850392         1.112809
 H        -0.622276        -2.533278        -0.071471
 H        -1.996574         1.373158         0.699649
 H        -0.311589         1.866405         0.226180
