19
Iteration:  4844
 C        -3.923069         0.599448        -1.686750
 C        -2.467663         0.287854        -1.475526
 C        -1.696923        -0.476258        -2.473231
 C        -2.110503        -1.157884        -1.115801
 C        -1.369676        -1.293974         0.157859
 C        -0.334410        -0.285731         0.305325
 O         0.680334        -0.426726         1.014260
 C        -0.519074         1.088917        -0.377469
 O        -1.975209         1.296377        -0.627666
 H        -4.500541         0.123910        -2.519075
 H        -4.399011         0.518447        -0.741595
 H        -3.995262         1.776863        -1.995355
 H        -2.278247        -0.885225        -3.305835
 H        -0.564002        -0.367113        -2.551757
 H        -2.926305        -1.904253        -1.167641
 H        -2.179552        -1.092631         0.828859
 H        -1.078079        -2.270261         0.582551
 H        -0.158780         1.987036         0.172239
 H         0.035554         1.077676        -1.322446
