19
Iteration:     9charge 0 multiplicity 1
 C        -3.924979         0.664796        -1.165267
 C        -2.506931         0.132352        -1.496005
 C        -2.329202        -1.156553        -2.353868
 C        -2.088455        -1.135002        -0.874490
 C        -0.636708        -1.258700        -0.378550
 C        -0.293986        -0.046525         0.391205
 O         0.298390         0.027941         1.474890
 C        -0.780255         1.261193        -0.267759
 O        -1.476324         1.082835        -1.567883
 H        -4.017858         1.005343        -0.053279
 H        -4.241446         1.481652        -1.922961
 H        -4.702164        -0.071654        -1.283787
 H        -3.166109        -1.636818        -2.859376
 H        -1.495830        -1.049647        -2.988798
 H        -2.979255        -1.430419        -0.165859
 H        -0.289392        -2.164124         0.171064
 H         0.031285        -1.146646        -1.233639
 H        -1.408671         1.908721         0.354524
 H         0.027681         1.825058        -0.631886
