19
Iteration:  1085charge 0 multiplicity 1
 C        -3.908009         0.628632        -1.714027
 C        -2.505830         0.171898        -1.586028
 C        -1.842706        -0.817226        -2.397004
 C        -2.260837        -1.251203        -1.004260
 C        -1.333698        -1.326342         0.288613
 C        -0.255812        -0.150444         0.417709
 O         0.943974        -0.180869         0.683069
 C        -0.925331         1.227482         0.136630
 O        -1.677348         1.291995        -1.064418
 H        -4.091019         1.564360        -2.338117
 H        -4.543128        -0.217137        -2.099773
 H        -4.369876         0.913193        -0.723030
 H        -2.435176        -1.153170        -3.245727
 H        -0.727777        -0.727781        -2.628938
 H        -3.099477        -1.884436        -0.821445
 H        -2.042299        -1.233984         1.139491
 H        -0.761902        -2.296695         0.352588
 H        -1.578119         1.620509         0.925518
 H        -0.028759         1.878024        -0.009735
