19
Iteration:  1939
 C        -3.862838         0.730941        -1.684053
 C        -2.534749         0.141068        -1.483014
 C        -1.824177        -0.920130        -2.440391
 C        -2.311515        -1.300239        -1.063332
 C        -1.331455        -1.210793         0.088003
 C        -0.279622        -0.055445         0.402626
 O         0.900728        -0.234322         0.619674
 C        -0.982161         1.269600         0.331738
 O        -1.546411         1.201435        -1.057704
 H        -3.878706         1.554052        -2.335614
 H        -4.610725         0.080791        -2.059083
 H        -4.187975         1.127102        -0.719616
 H        -2.441495        -1.327396        -3.237428
 H        -0.785020        -0.867544        -2.482723
 H        -3.256799        -1.908931        -0.934286
 H        -1.973521        -1.098136         1.038469
 H        -0.726250        -2.142431         0.340587
 H        -1.707089         1.146184         1.214021
 H        -0.378267         2.133128         0.507728
