19
Iteration:   345charge 0 multiplicity 1
 C        -3.897880         0.634509        -1.386668
 C        -2.498335         0.100915        -1.555760
 C        -1.972209        -1.053288        -2.423010
 C        -2.116783        -1.252849        -0.968603
 C        -1.070151        -1.240035         0.077735
 C        -0.332103         0.036223         0.387379
 O         0.776399        -0.066925         0.826961
 C        -1.152795         1.256739         0.096544
 O        -1.481633         1.210872        -1.329568
 H        -3.895692         1.595725        -0.781679
 H        -4.364273         0.849280        -2.352667
 H        -4.549476        -0.021124        -0.845916
 H        -2.720250        -1.583436        -3.031463
 H        -1.019847        -0.941798        -2.809020
 H        -2.943256        -1.930585        -0.612731
 H        -1.549096        -1.397082         1.053840
 H        -0.349678        -2.091396        -0.101652
 H        -2.084810         1.307568         0.679446
 H        -0.552092         2.161699         0.252850
