19
Iteration:  2095
 C        -3.751508         0.786842        -1.053551
 C        -2.433426         0.178206        -1.505481
 C        -2.352596        -1.002969        -2.530542
 C        -2.099225        -1.214634        -1.054326
 C        -0.715176        -1.463514        -0.394206
 C        -0.397086        -0.093883         0.512986
 O         0.223505        -0.136802         1.544876
 C        -0.869987         1.341551        -0.225764
 O        -1.373195         1.184971        -1.577431
 H        -4.295098         1.451155        -1.731178
 H        -4.485601         0.012802        -0.752611
 H        -3.647949         1.385123        -0.166133
 H        -3.289520        -1.459596        -3.028693
 H        -1.527847        -1.130357        -3.243639
 H        -2.941933        -1.559205        -0.506148
 H        -0.542902        -2.314197         0.300201
 H         0.056322        -1.320251        -1.219020
 H        -1.478104         1.953232         0.436863
 H         0.159486         1.861965        -0.398072
