19
Iteration:  3049charge 0 multiplicity 1
 C        -3.809406         0.848134        -1.620901
 C        -2.495549         0.175158        -1.531392
 C        -1.974447        -0.873148        -2.392741
 C        -2.217157        -1.239906        -0.945432
 C        -1.062565        -1.374368         0.029536
 C        -0.348700        -0.090742         0.471747
 O         0.792120        -0.173787         0.818690
 C        -1.139856         1.181688         0.187776
 O        -1.513820         1.194263        -1.232419
 H        -4.057892         1.135992        -2.645806
 H        -4.583895         0.163413        -1.389488
 H        -4.018191         1.603980        -0.861650
 H        -2.663746        -1.443659        -2.985291
 H        -0.949733        -0.698391        -2.837316
 H        -3.104591        -1.855987        -0.636322
 H        -1.441252        -1.821698         0.942823
 H        -0.306560        -2.061933        -0.389495
 H        -2.019836         1.129129         0.834747
 H        -0.532959         2.034809         0.353874
