19
Iteration:  4106charge 0 multiplicity 1
 C        -4.021697         0.697477        -1.738339
 C        -2.534691         0.301638        -1.506433
 C        -1.880153        -0.677260        -2.465170
 C        -2.234163        -1.120547        -1.078592
 C        -1.113005        -1.392365        -0.056181
 C        -0.332490        -0.228466         0.463711
 O         0.682059        -0.353356         1.134890
 C        -0.571344         1.085044        -0.160810
 O        -1.857728         1.327468        -0.795112
 H        -4.390559        -0.000898        -2.473408
 H        -4.496391         0.763978        -0.771415
 H        -3.831797         1.718345        -2.168392
 H        -2.454700        -0.949684        -3.344539
 H        -0.830176        -0.496801        -2.697208
 H        -2.959775        -1.908947        -0.893914
 H        -1.359967        -2.035929         0.776644
 H        -0.281852        -1.802329        -0.677212
 H        -0.345154         1.894014         0.462763
 H         0.186332         1.278640        -0.965203
