19
Iteration:  1557charge 0 multiplicity 1
 C        -3.822745         0.601620        -0.904305
 C        -2.449310         0.249517        -1.494627
 C        -2.342587        -0.852302        -2.481720
 C        -2.012678        -1.102342        -1.045565
 C        -0.705817        -1.344351        -0.395365
 C        -0.409586        -0.069210         0.429613
 O        -0.026222        -0.134759         1.588500
 C        -0.609185         1.231811        -0.408729
 O        -1.370588         1.099107        -1.604570
 H        -4.554362         0.994626        -1.582240
 H        -4.232233        -0.232344        -0.368146
 H        -3.661194         1.338242        -0.123703
 H        -3.277118        -1.188245        -2.946745
 H        -1.427164        -0.954426        -3.137123
 H        -2.717434        -1.591502        -0.425012
 H        -0.837219        -2.304222         0.082141
 H         0.080774        -1.441579        -1.246066
 H        -1.028588         1.888764         0.395091
 H         0.401271         1.519530        -0.624723
