19
Iteration:  2793charge 0 multiplicity 1
 C        -3.810235         0.714739        -0.907811
 C        -2.544528         0.106652        -1.483451
 C        -2.316292        -0.907439        -2.481195
 C        -2.060294        -1.271773        -1.053326
 C        -0.592599        -1.276349        -0.511459
 C        -0.351610        -0.079638         0.397205
 O        -0.135973        -0.116156         1.613588
 C        -0.497743         1.236116        -0.412206
 O        -1.466053         1.171807        -1.486644
 H        -4.512367         0.901784        -1.724321
 H        -4.301604         0.023869        -0.196237
 H        -3.565738         1.576242        -0.281277
 H        -3.053475        -1.192057        -3.178522
 H        -1.424708        -0.774162        -3.063293
 H        -2.746777        -1.742959        -0.340435
 H        -0.311225        -2.191579         0.172045
 H         0.177846        -1.187504        -1.310189
 H        -0.839970         1.869968         0.375032
 H         0.453949         1.589031        -0.893621
