19
Iteration:  2689charge 0 multiplicity 1
 C        -3.921754         0.824721        -1.683625
 C        -2.535613         0.191700        -1.419996
 C        -2.177852        -0.956685        -2.392354
 C        -2.185567        -1.165986        -0.909354
 C        -0.907521        -1.321797        -0.242335
 C        -0.331816        -0.115125         0.541420
 O         0.809861        -0.176224         1.029789
 C        -1.078209         1.265842         0.160467
 O        -1.478294         1.062637        -1.237719
 H        -3.690436         1.833832        -2.074847
 H        -4.544918         0.340442        -2.500093
 H        -4.494421         1.037384        -0.773915
 H        -3.013785        -1.399423        -2.998385
 H        -1.063380        -0.905720        -2.761117
 H        -3.119597        -1.702168        -0.546665
 H        -0.786845        -2.147286         0.411195
 H        -0.174142        -1.356540        -1.129086
 H        -1.907523         1.212184         0.868202
 H        -0.648916         2.258788         0.344389
