19
Iteration:  2756charge 0 multiplicity 1
 C        -3.821956         0.727571        -1.087270
 C        -2.464571         0.215777        -1.541830
 C        -2.398955        -0.893259        -2.507637
 C        -2.079054        -1.242827        -1.018461
 C        -0.670541        -1.297162        -0.344227
 C        -0.423202        -0.064386         0.475771
 O         0.276623        -0.131126         1.449782
 C        -0.862811         1.241697        -0.191484
 O        -1.333613         1.039212        -1.535367
 H        -4.228570         1.464677        -1.831878
 H        -4.489961        -0.102032        -0.868281
 H        -3.762679         1.431640        -0.244017
 H        -3.335676        -1.305344        -2.941228
 H        -1.487289        -0.760570        -3.116779
 H        -2.879347        -1.623198        -0.391074
 H        -0.626627        -2.187429         0.210486
 H         0.283902        -1.339181        -0.999358
 H        -1.716294         1.683943         0.374252
 H        -0.005582         1.985089        -0.084727
