19
Iteration:   917charge 0 multiplicity 1
 C        -3.669541         0.668877        -0.865436
 C        -2.373225         0.190950        -1.430685
 C        -2.492679        -1.033285        -2.297489
 C        -1.895562        -1.230879        -0.949922
 C        -0.385619        -1.211983        -0.610915
 C        -0.318319        -0.043065         0.292131
 O        -0.461868        -0.243193         1.490438
 C        -0.667662         1.371939        -0.325052
 O        -1.361866         1.133387        -1.617104
 H        -4.278132         1.275936        -1.634552
 H        -4.394563        -0.082095        -0.438683
 H        -3.509341         1.410014        -0.001461
 H        -3.465926        -1.319245        -2.494176
 H        -1.918627        -1.140275        -3.204601
 H        -2.620964        -1.625932        -0.220371
 H        -0.054030        -1.972005         0.050960
 H         0.157696        -1.099185        -1.573785
 H        -1.254148         1.913784         0.415045
 H         0.315972         1.871003        -0.469814
