19
Iteration:  2895charge 0 multiplicity 1
 C        -3.520112         0.803492        -0.609359
 C        -2.352242         0.114528        -1.457830
 C        -2.487316        -0.921877        -2.425640
 C        -1.875585        -1.298790        -1.071299
 C        -0.425406        -1.301237        -0.593465
 C        -0.436036        -0.006367         0.384986
 O        -0.572069        -0.095204         1.572886
 C        -0.693894         1.284612        -0.439017
 O        -1.315581         1.017049        -1.690538
 H        -3.537261         1.886676        -0.603140
 H        -4.463254         0.315298        -0.894384
 H        -3.338618         0.640886         0.461373
 H        -3.502130        -1.434927        -2.753344
 H        -1.825804        -0.667077        -3.295760
 H        -2.460969        -1.891471        -0.408776
 H        -0.134546        -2.139157        -0.019146
 H         0.261850        -1.297524        -1.479697
 H        -1.371215         1.952940         0.195330
 H         0.221269         1.819077        -0.627932
