19
Iteration:   567charge 0 multiplicity 1
 C        -3.993918         0.709978        -2.032500
 C        -2.677643         0.062252        -1.479735
 C        -1.597837        -0.711871        -2.098968
 C        -2.182680        -1.244560        -0.775907
 C        -1.129434        -1.328292         0.322233
 C        -0.215042        -0.115716         0.280884
 O         0.966325        -0.265178         0.552087
 C        -0.861783         1.271303        -0.123269
 O        -2.102165         1.239867        -0.788036
 H        -3.928202         1.085839        -3.011469
 H        -4.893496         0.106187        -2.071167
 H        -4.360296         1.385767        -1.232247
 H        -1.727854        -1.241326        -3.116483
 H        -0.558271        -0.302516        -2.067202
 H        -2.929917        -2.071745        -0.924794
 H        -1.614505        -1.547211         1.213659
 H        -0.634128        -2.328953        -0.034840
 H        -1.021655         1.823946         0.824405
 H        -0.075964         1.808494        -0.754386
