19
Iteration:  3488charge 0 multiplicity 1
 C        -3.731060         0.809749        -0.946717
 C        -2.437643         0.207739        -1.453514
 C        -2.344636        -0.852446        -2.531221
 C        -2.074563        -1.160915        -1.065488
 C        -0.564620        -1.287857        -0.638122
 C        -0.349378        -0.100901         0.401929
 O        -0.028548        -0.261201         1.562327
 C        -0.877444         1.195682        -0.155296
 O        -1.313879         1.077206        -1.471882
 H        -3.838906         1.838299        -1.291716
 H        -4.493537         0.132556        -1.449126
 H        -3.856387         0.718652         0.118748
 H        -3.314578        -1.199116        -2.861345
 H        -1.462983        -0.803152        -3.220817
 H        -2.797888        -1.678034        -0.493369
 H        -0.349904        -2.161651         0.016569
 H         0.090274        -1.289294        -1.592359
 H        -1.641972         1.729769         0.425739
 H        -0.123688         1.947900        -0.274190
