19
Iteration:  3722
 C        -3.846734         1.053270        -1.454039
 C        -2.526774         0.283698        -1.459638
 C        -2.329099        -0.869284        -2.497009
 C        -2.011126        -1.281455        -1.039665
 C        -0.591454        -1.282531        -0.596359
 C        -0.309222        -0.215328         0.473754
 O         0.371594        -0.300972         1.430263
 C        -1.097037         1.102242         0.163585
 O        -1.371252         1.119059        -1.265004
 H        -4.664007         0.330015        -1.511267
 H        -3.995382         1.544502        -0.554074
 H        -3.993277         1.824090        -2.281347
 H        -3.283816        -1.246003        -2.732773
 H        -1.711520        -0.895438        -3.414027
 H        -2.653197        -1.983631        -0.517259
 H        -0.510585        -2.308555        -0.182363
 H         0.010833        -1.043586        -1.526160
 H        -1.948516         1.268689         0.757984
 H        -0.523625         1.956344         0.401414
