19
Iteration:  4318
 C        -4.067342         0.700788        -1.894915
 C        -2.557733         0.284712        -1.503340
 C        -1.698941        -0.573892        -2.439604
 C        -2.140625        -1.056203        -0.988512
 C        -1.316434        -1.380282         0.261088
 C        -0.241197        -0.258054         0.414727
 O         0.910832        -0.440697         0.825638
 C        -0.786331         1.077629        -0.032478
 O        -1.862753         1.310306        -0.824700
 H        -4.627589        -0.179711        -2.337439
 H        -4.786427         1.276673        -1.132243
 H        -4.126203         1.309403        -2.873595
 H        -2.130911        -1.062948        -3.263563
 H        -0.706042        -0.169877        -2.771943
 H        -2.973616        -1.827173        -1.120042
 H        -1.982194        -1.452451         1.177687
 H        -0.881909        -2.414547        -0.030339
 H        -0.903605         1.538755         0.996265
 H         0.245382         1.561785        -0.293397
