19
Iteration:  1381charge 0 multiplicity 1
 C        -3.794950         0.837148        -1.078279
 C        -2.482037         0.156207        -1.541717
 C        -2.360892        -0.986452        -2.517474
 C        -2.134806        -1.181671        -1.058534
 C        -0.733435        -1.364424        -0.469603
 C        -0.374607        -0.094684         0.458982
 O         0.258521        -0.071294         1.521931
 C        -0.855206         1.254773        -0.151249
 O        -1.314725         1.043380        -1.489121
 H        -4.071773         1.718516        -1.648031
 H        -4.707161         0.215925        -1.008357
 H        -3.505824         1.224520        -0.044421
 H        -3.234590        -1.353488        -3.038295
 H        -1.483059        -0.976493        -3.163567
 H        -2.971741        -1.743924        -0.554384
 H        -0.517879        -2.228562         0.177796
 H         0.043125        -1.369739        -1.312057
 H        -1.583067         1.620922         0.587829
 H        -0.051774         1.916608        -0.067621
