19
Iteration:    76
 C        -3.890970         0.729966        -1.036493
 C        -2.517275         0.084931        -1.293470
 C        -2.237760        -1.078479        -2.208336
 C        -1.921069        -1.386443        -0.844471
 C        -0.445170        -1.355082        -0.475961
 C        -0.226312        -0.014737         0.237562
 O        -0.305426         0.197403         1.417921
 C        -0.457382         1.223798        -0.595409
 O        -1.647395         1.142500        -1.426030
 H        -4.646922         0.026890        -0.563038
 H        -3.653832         1.623202        -0.397309
 H        -4.346766         1.300862        -1.841593
 H        -3.146585        -1.510318        -2.498726
 H        -1.595148        -1.012089        -3.079010
 H        -2.523162        -2.124961        -0.324886
 H        -0.143583        -2.201687         0.118529
 H         0.093575        -1.417813        -1.420752
 H        -0.594205         1.980795         0.164934
 H         0.312557         1.489243        -1.263423
