19
Iteration:  1108charge 0 multiplicity 1
 C        -3.888916         0.595663        -1.946684
 C        -2.528610         0.234843        -1.445437
 C        -1.764772        -0.866657        -2.178432
 C        -2.286536        -1.036873        -0.788558
 C        -1.213236        -1.379159         0.259287
 C        -0.309882        -0.167750         0.299359
 O         0.880654        -0.249312         0.441981
 C        -1.020893         1.183519         0.245333
 O        -1.671191         1.338433        -1.026519
 H        -3.774731         1.414687        -2.677171
 H        -4.221988        -0.272424        -2.536017
 H        -4.760210         0.929721        -1.307419
 H        -2.280425        -1.274119        -3.025479
 H        -0.684473        -0.639495        -2.343181
 H        -3.118101        -1.681589        -0.632078
 H        -1.699025        -1.515501         1.276140
 H        -0.581069        -2.254797         0.008238
 H        -1.690743         1.289138         1.120051
 H        -0.190293         1.853871         0.279640
