19
Iteration:  3282charge 0 multiplicity 1
 C        -4.008289         0.540087        -1.836044
 C        -2.581958         0.241380        -1.470095
 C        -1.736398        -0.521009        -2.416024
 C        -2.163217        -1.138916        -1.097552
 C        -1.261309        -1.226540         0.107509
 C        -0.215301        -0.179210         0.318987
 O         0.751563        -0.468245         0.992461
 C        -0.517893         1.200496        -0.281456
 O        -2.005655         1.258840        -0.555587
 H        -4.240488         0.754068        -2.848622
 H        -4.604934        -0.370724        -1.565921
 H        -4.324341         1.229308        -1.097833
 H        -2.373096        -0.856655        -3.234166
 H        -0.709142        -0.366869        -2.663849
 H        -2.885146        -1.884974        -1.292725
 H        -1.911056        -1.416015         0.938223
 H        -0.640790        -2.055739        -0.017493
 H        -0.300092         2.050702         0.342122
 H         0.048798         1.302163        -1.269652
