19
Iteration:  3022charge 0 multiplicity 1
 C        -3.972079         0.800461        -1.672584
 C        -2.520552         0.180259        -1.493993
 C        -2.058261        -0.881704        -2.478959
 C        -2.293064        -1.194023        -0.919408
 C        -0.924719        -1.373468        -0.201649
 C        -0.267381        -0.148616         0.431624
 O         0.711653        -0.133067         1.188627
 C        -0.890533         1.200910         0.036646
 O        -1.558888         1.193542        -1.181629
 H        -4.236914         0.806397        -2.742954
 H        -4.799734         0.111091        -1.217160
 H        -4.085928         1.694602        -1.047357
 H        -2.942351        -1.348106        -2.978556
 H        -1.055508        -1.042966        -2.792150
 H        -3.081856        -1.660371        -0.357504
 H        -1.108473        -2.063010         0.668868
 H        -0.283695        -1.940955        -0.906098
 H        -1.499521         1.500673         0.978597
 H        -0.034935         2.005726         0.023319
