19
Iteration:  4943charge 0 multiplicity 1
 C        -3.840873         0.733878        -2.056500
 C        -2.556911         0.286835        -1.411449
 C        -1.630227        -0.657988        -2.252249
 C        -2.310478        -1.113998        -0.978336
 C        -1.355365        -1.383459         0.152423
 C        -0.277074        -0.291184         0.328487
 O         0.927931        -0.374963         0.633119
 C        -0.747001         1.135559         0.002966
 O        -2.018005         1.315650        -0.627197
 H        -4.534577        -0.097710        -2.212080
 H        -4.394417         1.470953        -1.506275
 H        -3.679067         1.340758        -3.089835
 H        -2.170693        -0.996586        -3.181446
 H        -0.464953        -0.727980        -2.154231
 H        -3.111067        -1.877308        -0.961447
 H        -1.830144        -1.545004         1.122752
 H        -0.876003        -2.391878         0.102266
 H        -0.782049         1.653385         1.005754
 H         0.082314         1.636569        -0.476327
