19
Iteration:   420
 C        -3.800166         0.403479        -1.977636
 C        -2.506685         0.153962        -1.449205
 C        -1.828838        -0.943137        -2.275043
 C        -2.325740        -1.151687        -0.772424
 C        -1.103144        -1.214795         0.092098
 C        -0.172645        -0.028567         0.210354
 O         0.952680        -0.296911         0.611068
 C        -0.898835         1.325683         0.104773
 O        -2.057694         1.398337        -0.807430
 H        -3.861480         1.522152        -2.119726
 H        -3.966457        -0.167817        -2.875430
 H        -4.551155         0.306951        -1.253550
 H        -2.506223        -1.303949        -3.032412
 H        -0.854377        -1.214805        -2.498267
 H        -3.210784        -1.673784        -0.317934
 H        -1.401075        -1.122828         1.185258
 H        -0.475414        -2.023120         0.034826
 H        -1.324744         1.348230         1.146161
 H        -0.347458         2.205328        -0.167399
