19
Iteration:   286
 C        -3.957488         0.805718        -1.253374
 C        -2.582496         0.082269        -1.435629
 C        -2.163044        -0.968107        -2.423506
 C        -2.042409        -1.347742        -0.954522
 C        -0.799379        -1.458825        -0.081265
 C        -0.314803         0.006272         0.382756
 O         0.549350         0.161856         1.224370
 C        -0.968574         1.252354        -0.229791
 O        -1.499946         1.048483        -1.475517
 H        -4.433103         0.584465        -0.301153
 H        -3.720109         1.888773        -1.351752
 H        -4.667596         0.503946        -2.099853
 H        -2.867047        -1.511855        -3.104986
 H        -1.168588        -0.884058        -3.003943
 H        -2.905404        -1.954493        -0.589233
 H        -0.916020        -2.038880         0.881987
 H        -0.056671        -2.000694        -0.629043
 H        -1.741395         1.566504         0.586052
 H        -0.184789         2.055331        -0.271906
