19
Iteration:  2218charge 0 multiplicity 1
 C        -3.766350         0.644180        -0.818116
 C        -2.461166         0.187275        -1.386578
 C        -2.433940        -0.813565        -2.469166
 C        -1.939511        -1.167297        -1.003376
 C        -0.429813        -1.226008        -0.571791
 C        -0.422821        -0.104824         0.392005
 O        -0.340887        -0.044931         1.603906
 C        -0.607704         1.197795        -0.402005
 O        -1.297542         0.946178        -1.625585
 H        -4.429195         1.261817        -1.458029
 H        -4.274155        -0.203953        -0.410089
 H        -3.584955         1.304140         0.040532
 H        -3.361098        -1.197073        -2.809804
 H        -1.540064        -0.717244        -3.097828
 H        -2.664080        -1.648589        -0.290029
 H        -0.357878        -2.234288        -0.200989
 H         0.114302        -1.097921        -1.523600
 H        -1.188574         1.997617         0.075854
 H         0.404913         1.532458        -0.710058
