19
Iteration:  4403charge 0 multiplicity 1
 C        -3.837296         0.847707        -2.144077
 C        -2.606897         0.209762        -1.392622
 C        -1.498576        -0.576864        -2.220746
 C        -2.228709        -1.222317        -1.003576
 C        -1.411726        -1.265165         0.381682
 C        -0.213965        -0.257120         0.310351
 O         0.964954        -0.470815         0.556487
 C        -0.730103         1.126456        -0.161163
 O        -2.180598         1.253386        -0.513256
 H        -4.150385         0.187762        -2.973207
 H        -4.778267         0.737574        -1.458476
 H        -3.614701         1.830590        -2.416546
 H        -1.878231        -0.990864        -3.138104
 H        -0.365092        -0.534787        -2.024865
 H        -3.015392        -1.963149        -1.206847
 H        -1.982631        -0.957907         1.252234
 H        -1.415615        -2.438296         0.655459
 H        -0.709054         1.837278         0.611949
 H        -0.129957         1.445850        -1.060073
