19
Iteration:  1864charge 0 multiplicity 1
 C        -3.769441         0.676191        -1.927615
 C        -2.467897         0.210661        -1.407366
 C        -1.731260        -0.850408        -2.174736
 C        -2.341026        -1.146104        -0.801228
 C        -1.295481        -1.265031         0.241469
 C        -0.314592        -0.135094         0.278237
 O         0.859698        -0.325016         0.373258
 C        -1.007606         1.185056         0.219904
 O        -1.731149         1.310198        -0.976455
 H        -3.605176         1.358081        -2.779276
 H        -4.542785        -0.079732        -2.168269
 H        -4.317307         1.285157        -1.146192
 H        -2.060135        -1.250897        -3.125404
 H        -0.656939        -0.785262        -2.122727
 H        -3.208760        -1.859920        -0.700155
 H        -1.805615        -1.372373         1.165057
 H        -0.678393        -2.188057         0.078437
 H        -1.652734         1.151151         1.132441
 H        -0.208179         1.910338         0.318098
