19
Iteration:  2365charge 0 multiplicity 1
 C        -3.945362         0.710161        -1.512304
 C        -2.543254         0.225963        -1.454416
 C        -2.143618        -0.821242        -2.376483
 C        -2.144455        -1.121114        -0.851438
 C        -0.822139        -1.512766        -0.185798
 C        -0.344171        -0.150664         0.436671
 O         0.640853        -0.125417         1.181468
 C        -1.011148         1.238918        -0.044559
 O        -1.472660         1.150128        -1.368893
 H        -3.797419         1.776320        -1.878261
 H        -4.573611         0.355462        -2.407157
 H        -4.422394         0.743488        -0.493210
 H        -2.956877        -1.205353        -3.034746
 H        -1.139490        -0.690844        -2.908096
 H        -3.086734        -1.610782        -0.619170
 H        -0.863448        -2.255202         0.657355
 H         0.021835        -1.787893        -0.875093
 H        -1.977488         1.468948         0.535820
 H        -0.249805         2.010174         0.043772
