19
Iteration:  4707
 C        -3.953264         0.607232        -1.706534
 C        -2.510117         0.336100        -1.397978
 C        -1.950349        -0.585591        -2.504501
 C        -2.168575        -1.106469        -1.051709
 C        -1.079099        -1.446231        -0.064237
 C        -0.308027        -0.262788         0.338412
 O         0.551040        -0.370993         1.216288
 C        -0.536376         1.072937        -0.284778
 O        -1.803481         1.420233        -0.790391
 H        -4.505870        -0.005789        -2.409990
 H        -4.658452         0.707561        -0.766311
 H        -3.921546         1.612745        -2.030827
 H        -2.662558        -0.961998        -3.259791
 H        -0.880138        -0.600657        -2.860447
 H        -3.062690        -1.780971        -1.182259
 H        -1.645808        -1.843818         0.791362
 H        -0.344169        -2.143385        -0.376675
 H        -0.340091         1.869542         0.478931
 H         0.310324         1.014393        -0.959593
