19
Iteration:   624
 C        -3.987798         0.431124        -1.647085
 C        -2.526028         0.196261        -1.528814
 C        -1.949410        -0.952004        -2.385970
 C        -2.193465        -1.148660        -0.894295
 C        -1.114950        -1.269260         0.075567
 C        -0.228874        -0.069565         0.335572
 O         0.880664        -0.225288         0.812231
 C        -0.938069         1.288894         0.142264
 O        -1.696494         1.409117        -1.165818
 H        -4.292860         1.434669        -1.958003
 H        -4.360102        -0.289613        -2.370234
 H        -4.558148         0.330775        -0.741086
 H        -2.603132        -1.383890        -3.063639
 H        -0.883292        -1.048670        -2.572458
 H        -3.146320        -1.672639        -0.626079
 H        -1.464769        -1.589272         1.003064
 H        -0.366611        -2.030529        -0.171321
 H        -1.612328         1.481501         0.998948
 H        -0.196793         2.148080         0.139951
