19
Iteration:  2549
 C        -3.848114         0.666650        -1.955302
 C        -2.470249         0.256903        -1.446225
 C        -1.701757        -0.806204        -2.147238
 C        -2.290122        -1.196796        -0.777098
 C        -1.269210        -1.395280         0.275909
 C        -0.279409        -0.155793         0.271350
 O         0.904167        -0.294147         0.353830
 C        -1.097764         1.143648         0.266259
 O        -1.735638         1.397088        -1.009769
 H        -3.680387         1.683505        -2.347006
 H        -4.253664         0.142238        -2.825151
 H        -4.500465         0.770339        -1.099588
 H        -2.164981        -1.219386        -3.081130
 H        -0.587699        -0.715023        -2.074660
 H        -3.160751        -1.882914        -0.643983
 H        -1.607158        -1.391489         1.298790
 H        -0.605417        -2.296594         0.023758
 H        -1.923268         1.080997         1.037949
 H        -0.537418         2.059703         0.497287
