19
Iteration:  1790charge 0 multiplicity 1
 C        -3.857368         0.763747        -1.963898
 C        -2.526329         0.209326        -1.378345
 C        -1.731420        -0.838313        -2.037043
 C        -2.397433        -1.223841        -0.745846
 C        -1.196867        -1.377127         0.169322
 C        -0.274945        -0.164394         0.275317
 O         0.894801        -0.324523         0.545881
 C        -0.948296         1.215830         0.064002
 O        -1.774808         1.341839        -1.072750
 H        -3.677517         1.809216        -2.240431
 H        -4.300999         0.217052        -2.811012
 H        -4.747901         0.768637        -1.335945
 H        -1.902573        -0.960251        -3.085866
 H        -0.659032        -0.831332        -1.982054
 H        -3.363035        -1.770310        -0.633640
 H        -1.534265        -1.571394         1.256764
 H        -0.656650        -2.256249        -0.181616
 H        -1.552510         1.302694         0.989485
 H        -0.141901         2.023293         0.002814
