19
Iteration:  3685
 C        -3.779664         0.923273        -1.222331
 C        -2.424437         0.206063        -1.523026
 C        -2.259955        -0.867793        -2.510849
 C        -2.058349        -1.139370        -1.013300
 C        -0.639254        -1.252847        -0.657342
 C        -0.338878        -0.186722         0.417131
 O         0.175729        -0.349063         1.482557
 C        -1.026619         1.126896         0.028017
 O        -1.384062         1.174017        -1.327331
 H        -4.374586         0.196234        -0.668688
 H        -3.630857         1.846619        -0.555044
 H        -4.217428         1.309223        -2.112480
 H        -3.294094        -1.287658        -2.789891
 H        -1.413070        -0.924371        -3.218108
 H        -2.714138        -1.760992        -0.324418
 H        -0.284178        -2.231853        -0.298109
 H        -0.034194        -1.147418        -1.547221
 H        -1.914680         1.172653         0.762272
 H        -0.279531         1.939918         0.212966
