19
Iteration:  2186charge 0 multiplicity 1
 C        -3.719292         0.704257        -0.885205
 C        -2.408773         0.109308        -1.376066
 C        -2.464319        -1.029271        -2.339620
 C        -1.973925        -1.287221        -1.028726
 C        -0.500439        -1.232879        -0.623073
 C        -0.403584        -0.016527         0.306645
 O        -0.387467        -0.129863         1.533320
 C        -0.523425         1.361477        -0.332842
 O        -1.314986         1.134737        -1.555752
 H        -3.964544         1.720388        -1.349434
 H        -4.578939         0.050138        -1.042111
 H        -3.516476         0.784850         0.226201
 H        -3.368464        -1.351336        -2.739625
 H        -1.802590        -1.221316        -3.200162
 H        -2.614459        -1.737965        -0.212374
 H        -0.434591        -2.127335        -0.024605
 H         0.088296        -1.368111        -1.533632
 H        -0.945609         2.176038         0.368736
 H         0.467957         1.718522        -0.628435
