19
Iteration:   176
 C        -3.641703         0.836911        -0.755328
 C        -2.548871         0.008216        -1.364849
 C        -2.395533        -1.139242        -2.412172
 C        -1.845101        -1.344808        -0.949540
 C        -0.451057        -1.251140        -0.405993
 C        -0.440646         0.042840         0.356791
 O        -0.110844         0.152071         1.516927
 C        -0.861539         1.279218        -0.505256
 O        -1.465656         0.937981        -1.763064
 H        -4.552691         0.931325        -1.340515
 H        -3.960256         0.615896         0.254989
 H        -3.218473         1.896591        -0.865587
 H        -3.295006        -1.726173        -2.794001
 H        -1.613273        -0.810846        -3.094082
 H        -2.439676        -1.924835        -0.350327
 H        -0.247700        -2.039929         0.299158
 H         0.322449        -1.177144        -1.162601
 H        -1.461087         1.810937         0.228848
 H         0.069302         1.826928        -0.650501
