19
Iteration:  4127charge 0 multiplicity 1
 C        -4.078747         0.689758        -1.780726
 C        -2.588386         0.280213        -1.457217
 C        -1.868831        -0.482665        -2.556640
 C        -2.170302        -1.125801        -1.065029
 C        -1.132049        -1.447704        -0.020187
 C        -0.184209        -0.258373         0.460301
 O         0.723586        -0.377474         1.287551
 C        -0.563987         1.057876        -0.352076
 O        -1.912483         1.321327        -0.744119
 H        -4.432030        -0.153528        -2.349873
 H        -4.581411         0.828353        -0.872018
 H        -4.103445         1.628456        -2.425022
 H        -2.444027        -1.042302        -3.272960
 H        -0.859206        -0.272211        -2.919392
 H        -3.008857        -1.876547        -1.065164
 H        -1.631490        -1.554698         0.938447
 H        -0.523424        -2.325068        -0.196422
 H        -0.215818         1.919721         0.153466
 H         0.041718         1.219152        -1.237757
