19
Iteration:  2733
 C        -3.779905         0.878261        -1.269267
 C        -2.486061         0.146868        -1.465184
 C        -2.314441        -1.000169        -2.485510
 C        -2.143343        -1.197523        -0.958018
 C        -0.748372        -1.406544        -0.409179
 C        -0.250989        -0.072319         0.357734
 O         0.433821        -0.012891         1.392736
 C        -1.069426         1.202511        -0.075290
 O        -1.365978         1.069817        -1.390683
 H        -3.697711         1.817126        -1.874788
 H        -4.622651         0.241847        -1.618081
 H        -4.002967         1.290367        -0.280458
 H        -3.365473        -1.290218        -2.743330
 H        -1.478014        -0.997380        -3.285337
 H        -2.953602        -1.804870        -0.474529
 H        -0.867511        -2.224205         0.242017
 H         0.060590        -1.735592        -1.122193
 H        -1.941112         1.135857         0.641842
 H        -0.509843         2.076577         0.298506
