19
Iteration:   803
 C        -3.969470         0.507227        -1.005387
 C        -2.507238         0.145563        -1.388400
 C        -2.117522        -0.832362        -2.418029
 C        -2.089588        -1.168849        -0.935794
 C        -0.603404        -1.274995        -0.441615
 C        -0.350546        -0.122515         0.340020
 O        -0.030503         0.022627         1.523689
 C        -0.492008         1.143587        -0.494804
 O        -1.573700         1.212653        -1.412204
 H        -4.300469         1.479687        -1.378013
 H        -4.605412        -0.267299        -1.480212
 H        -4.122207         0.361776         0.112962
 H        -2.894206        -1.341172        -3.060841
 H        -1.062172        -0.581483        -2.897993
 H        -2.795041        -1.962237        -0.610587
 H        -0.460008        -2.255731         0.060934
 H        -0.118588        -1.262503        -1.352701
 H        -0.615674         2.003836         0.209380
 H         0.365594         1.331801        -1.088072
