19
Iteration:  3378charge 0 multiplicity 1
 C        -4.002619         0.618974        -1.478041
 C        -2.510131         0.348897        -1.495829
 C        -2.250575        -0.839830        -2.582547
 C        -2.135974        -1.141228        -1.097939
 C        -0.905998        -1.373504        -0.253270
 C        -0.259392        -0.201951         0.476590
 O         0.546073        -0.275769         1.375963
 C        -0.649222         1.167660        -0.063775
 O        -1.592238         1.363270        -1.146385
 H        -4.310293         1.655647        -1.474094
 H        -4.462163         0.245675        -2.409649
 H        -4.432324         0.037646        -0.673611
 H        -3.133783        -1.087392        -3.215902
 H        -1.398222        -0.988939        -3.178265
 H        -2.946608        -1.693941        -0.587976
 H        -1.058875        -2.252883         0.428000
 H         0.009474        -1.631346        -0.893196
 H        -0.935058         1.677447         0.885170
 H         0.162356         1.729389        -0.443198
