19
Iteration:  2042
 C        -3.899205         0.819811        -1.457499
 C        -2.535305         0.183860        -1.482412
 C        -2.248200        -0.855813        -2.441661
 C        -2.172268        -1.307724        -0.995274
 C        -0.871665        -1.510359        -0.194607
 C        -0.359897        -0.085434         0.512387
 O         0.602913        -0.130022         1.224814
 C        -0.898746         1.321122         0.001659
 O        -1.407322         1.151013        -1.365821
 H        -4.149332         1.242214        -2.487446
 H        -4.768776         0.091348        -1.421953
 H        -4.109412         1.567004        -0.674782
 H        -3.129168        -1.153317        -3.101350
 H        -1.368572        -0.819901        -3.107327
 H        -2.975754        -1.939739        -0.692916
 H        -0.954891        -2.144930         0.659567
 H         0.021626        -1.735320        -0.813473
 H        -1.666140         1.736741         0.735945
 H        -0.008840         2.064491         0.011315
