19
Iteration:   810charge 0 multiplicity 1
 C        -3.958727         0.479481        -0.917058
 C        -2.521312         0.159942        -1.398997
 C        -2.096537        -0.820930        -2.456965
 C        -2.019456        -1.159494        -0.909272
 C        -0.666182        -1.360020        -0.447375
 C        -0.343157        -0.089210         0.341487
 O        -0.098250         0.039829         1.522314
 C        -0.448788         1.170721        -0.484282
 O        -1.591520         1.186860        -1.469059
 H        -4.339640         1.482157        -1.149969
 H        -4.550043        -0.268584        -1.436362
 H        -4.064070         0.281578         0.091936
 H        -2.813084        -1.128594        -3.171231
 H        -1.223904        -0.363467        -2.861661
 H        -2.871456        -1.789077        -0.717969
 H        -0.402871        -2.228451         0.139117
 H         0.053318        -1.457974        -1.381794
 H        -0.502015         2.071374         0.090008
 H         0.562767         1.248639        -1.015482
