19
Iteration:  3050charge 0 multiplicity 1
 C        -3.803832         0.845278        -1.619180
 C        -2.493263         0.170228        -1.527551
 C        -1.968165        -0.861653        -2.394380
 C        -2.213742        -1.240247        -0.939273
 C        -1.066362        -1.368817         0.033726
 C        -0.351930        -0.100168         0.469550
 O         0.793961        -0.172634         0.808361
 C        -1.149592         1.177847         0.189334
 O        -1.508317         1.194711        -1.231170
 H        -4.065297         1.172027        -2.647749
 H        -4.579216         0.159263        -1.399598
 H        -4.031455         1.607913        -0.858171
 H        -2.653168        -1.443588        -2.993037
 H        -0.964365        -0.722307        -2.860369
 H        -3.124669        -1.859952        -0.620720
 H        -1.457671        -1.817679         0.975587
 H        -0.324804        -2.058141        -0.356080
 H        -2.040452         1.102547         0.800385
 H        -0.563569         2.071978         0.327480
