19
Iteration:  3880charge 0 multiplicity 1
 C        -3.892165         0.862236        -1.625104
 C        -2.476724         0.310354        -1.475685
 C        -1.964955        -0.715080        -2.446885
 C        -2.244301        -1.132156        -0.923825
 C        -0.968376        -1.499725        -0.254035
 C        -0.256930        -0.236701         0.348086
 O         0.687594        -0.328678         1.082765
 C        -1.095436         1.102445         0.160678
 O        -1.551884         1.321895        -1.132173
 H        -4.567256         0.019281        -1.733800
 H        -4.117600         1.401350        -0.653291
 H        -3.985385         1.446007        -2.483249
 H        -2.585138        -1.154186        -3.241575
 H        -0.868580        -0.712730        -2.706122
 H        -3.154345        -1.659299        -0.677710
 H        -1.102232        -2.181965         0.610319
 H        -0.422572        -2.279627        -0.834943
 H        -1.897914         0.900755         0.917771
 H        -0.487271         2.069494         0.355142
