19
Iteration:  2261charge 0 multiplicity 1
 C        -3.641234         0.758249        -0.925438
 C        -2.461323         0.071485        -1.509787
 C        -2.374184        -0.978701        -2.518133
 C        -2.018534        -1.264056        -1.009972
 C        -0.578462        -1.322924        -0.535046
 C        -0.277187        -0.028630         0.381547
 O        -0.145179        -0.088516         1.588393
 C        -0.733782         1.283954        -0.275574
 O        -1.490466         1.130990        -1.516470
 H        -4.025535         1.378503        -1.747627
 H        -4.357917         0.219546        -0.371637
 H        -3.247033         1.534501        -0.278153
 H        -3.255987        -1.341185        -3.015344
 H        -1.500288        -1.080176        -3.180636
 H        -2.884699        -1.757912        -0.433199
 H        -0.526598        -2.122376         0.224136
 H         0.254122        -1.463913        -1.369798
 H        -1.217120         1.790525         0.560683
 H         0.114912         1.959212        -0.668930
