19
Iteration:  3077
 C        -3.761974         0.815940        -1.576996
 C        -2.429982         0.207364        -1.587062
 C        -1.899241        -0.883326        -2.392496
 C        -2.240924        -1.183982        -0.968743
 C        -1.223790        -1.405386         0.229350
 C        -0.391124        -0.114175         0.414431
 O         0.848308        -0.037664         0.529152
 C        -1.275406         1.087868         0.339069
 O        -1.362715         1.141260        -1.179681
 H        -3.918060         1.642907        -2.286991
 H        -4.496656         0.000764        -2.002811
 H        -4.310665         1.092010        -0.677381
 H        -2.454165        -1.381155        -3.186535
 H        -0.889217        -0.704199        -2.741640
 H        -3.162357        -1.593094        -0.729336
 H        -1.903397        -1.420442         1.126028
 H        -0.752630        -2.417437         0.160748
 H        -2.283249         0.847855         0.791209
 H        -0.716201         2.020600         0.605815
