19
Iteration:   396
 C        -4.034008         0.578114        -2.039657
 C        -2.677966         0.195590        -1.437675
 C        -1.903113        -0.924998        -2.181990
 C        -2.245846        -1.155884        -0.805680
 C        -0.998914        -1.364566         0.121872
 C        -0.151363        -0.087761         0.307693
 O         1.019389        -0.118872         0.729951
 C        -0.900885         1.213069         0.106912
 O        -1.882088         1.317194        -0.990199
 H        -4.240591         1.648324        -2.059516
 H        -4.028000         0.116193        -3.047683
 H        -4.907062         0.223834        -1.473564
 H        -2.525371        -1.467192        -2.933246
 H        -0.854873        -0.834070        -2.485414
 H        -3.091056        -1.819220        -0.428400
 H        -1.232272        -1.654804         1.196647
 H        -0.410427        -2.128724        -0.298542
 H        -1.477988         1.288006         1.056817
 H        -0.288520         2.054781        -0.062537
