19
Iteration:  1778
 C        -3.970176         0.676930        -1.864508
 C        -2.533464         0.221868        -1.443260
 C        -1.671680        -0.887207        -2.168641
 C        -2.315716        -1.129168        -0.810202
 C        -1.251720        -1.325484         0.223098
 C        -0.322189        -0.176877         0.246686
 O         0.846869        -0.382032         0.590443
 C        -0.899535         1.200093         0.094371
 O        -1.709666         1.439526        -1.092100
 H        -3.922652         1.681591        -2.298488
 H        -4.333223        -0.014714        -2.658228
 H        -4.492503         0.682730        -0.914381
 H        -2.073296        -1.419715        -2.991477
 H        -0.646054        -0.577240        -2.083932
 H        -3.216610        -1.805342        -0.734150
 H        -1.575165        -1.436851         1.308444
 H        -0.597506        -2.207600         0.032791
 H        -1.528578         1.345813         0.989005
 H        -0.044775         1.905406         0.191405
