19
Iteration:  1665
 C        -3.840511         0.750931        -1.549525
 C        -2.443544         0.236419        -1.473457
 C        -2.237225        -0.915682        -2.394782
 C        -2.215869        -1.131652        -0.879648
 C        -0.900274        -1.412981        -0.222912
 C        -0.274010        -0.163387         0.306953
 O         0.599293        -0.092298         1.145697
 C        -0.969971         1.090105         0.068324
 O        -1.451018         1.254698        -1.265904
 H        -3.892048         1.552802        -2.275393
 H        -4.519945         0.098628        -2.062421
 H        -4.218591         1.317531        -0.659047
 H        -3.126783        -1.364013        -2.949495
 H        -1.282665        -1.189395        -2.873398
 H        -3.111972        -1.455758        -0.407057
 H        -1.094661        -1.992897         0.669269
 H        -0.168062        -2.098996        -0.781861
 H        -1.847326         1.204627         0.813062
 H        -0.334000         1.922536         0.348078
