19
Iteration:  3639charge 0 multiplicity 1
 C        -3.806172         0.622889        -1.062907
 C        -2.473474         0.271800        -1.456083
 C        -2.294001        -0.640142        -2.624127
 C        -2.092898        -1.166662        -1.246119
 C        -0.662017        -1.309750        -0.440543
 C        -0.358454        -0.167250         0.445922
 O         0.052400        -0.283998         1.617834
 C        -0.664251         1.157310        -0.144548
 O        -1.445073         1.167979        -1.376223
 H        -4.467088        -0.248257        -0.968417
 H        -3.855300         1.183698        -0.058305
 H        -4.174853         1.381075        -1.766277
 H        -3.177315        -1.062460        -3.055718
 H        -1.509474        -0.410712        -3.337731
 H        -2.763481        -1.926475        -0.919567
 H        -0.596559        -2.275255         0.022364
 H         0.035166        -1.471753        -1.231183
 H        -1.134820         1.923801         0.580156
 H         0.317168         1.573937        -0.618730
