19
Iteration:  3585
 C        -3.910696         0.597230        -0.946484
 C        -2.433547         0.228411        -1.421081
 C        -2.151561        -0.623623        -2.552504
 C        -2.046452        -1.209977        -1.100861
 C        -0.595956        -1.377359        -0.483480
 C        -0.399357        -0.121191         0.380332
 O        -0.212541        -0.330466         1.562419
 C        -0.440561         1.167806        -0.492878
 O        -1.561895         1.305134        -1.289765
 H        -4.661478         0.444290        -1.710526
 H        -4.081499         0.090830         0.082857
 H        -3.729345         1.640727        -0.712604
 H        -2.838059        -1.057133        -3.233161
 H        -1.142631        -0.312676        -2.888588
 H        -2.743510        -1.792518        -0.583076
 H        -0.715997        -2.183294         0.221305
 H         0.117161        -1.571509        -1.295580
 H        -0.481100         1.987098         0.294112
 H         0.563422         1.256066        -0.965714
