19
Iteration:  2258charge 0 multiplicity 1
 C        -3.628566         0.776035        -0.912013
 C        -2.443433         0.060353        -1.513279
 C        -2.380900        -0.976844        -2.532519
 C        -2.009319        -1.275486        -1.035048
 C        -0.585487        -1.332584        -0.503263
 C        -0.278466        -0.037137         0.377847
 O        -0.164970        -0.103012         1.590002
 C        -0.716910         1.309881        -0.300905
 O        -1.523215         1.135559        -1.513936
 H        -4.081640         1.362300        -1.715152
 H        -4.381786         0.271735        -0.276152
 H        -3.147092         1.520042        -0.317827
 H        -3.292598        -1.412891        -2.986136
 H        -1.508768        -1.083335        -3.281234
 H        -2.765191        -1.736568        -0.364835
 H        -0.391776        -2.157084         0.212217
 H         0.286169        -1.375541        -1.224787
 H        -1.189512         1.846916         0.512397
 H         0.164039         1.981013        -0.585688
