19
Iteration:  4205
 C        -4.028117         0.714297        -1.691855
 C        -2.579451         0.229502        -1.473750
 C        -1.797988        -0.567136        -2.469402
 C        -2.129078        -1.156078        -1.134587
 C        -1.185556        -1.384224         0.013834
 C        -0.237562        -0.239573         0.357473
 O         0.634960        -0.357474         1.166286
 C        -0.531064         1.092209        -0.267133
 O        -1.919040         1.293557        -0.767422
 H        -4.515467        -0.072480        -2.278020
 H        -4.526451         0.815657        -0.717586
 H        -3.938177         1.640385        -2.235225
 H        -2.365878        -0.813392        -3.369941
 H        -0.729491        -0.327419        -2.574254
 H        -2.846526        -1.925453        -1.216655
 H        -1.725623        -1.387707         0.940639
 H        -0.485414        -2.252078        -0.022974
 H        -0.445075         1.894270         0.411079
 H         0.166876         1.212520        -1.153920
