19
Iteration:  2944
 C        -3.710690         0.760678        -0.946148
 C        -2.439375         0.157331        -1.496347
 C        -2.377039        -0.946459        -2.519807
 C        -2.095861        -1.271476        -1.067405
 C        -0.606664        -1.269609        -0.540344
 C        -0.425917        -0.111092         0.445631
 O        -0.006835        -0.061287         1.624138
 C        -0.762594         1.272564        -0.261404
 O        -1.364124         1.037213        -1.546757
 H        -3.677001         1.810327        -1.384645
 H        -4.597856         0.225305        -1.316418
 H        -3.697466         1.057202         0.121250
 H        -3.322189        -1.260022        -2.873429
 H        -1.417099        -1.004008        -3.073131
 H        -2.762387        -1.987510        -0.492380
 H        -0.255032        -2.274300        -0.078413
 H         0.024622        -1.107326        -1.416591
 H        -1.333280         1.892964         0.486169
 H         0.163328         1.955809        -0.417939
