19
Iteration:   485charge 0 multiplicity 1
 C        -4.022406         0.423305        -1.965117
 C        -2.568220         0.094785        -1.426868
 C        -1.426275        -0.489729        -2.166254
 C        -1.985668        -1.208404        -0.902000
 C        -1.310682        -1.143191         0.532138
 C        -0.241798        -0.179438         0.257799
 O         0.902676        -0.510191         0.370025
 C        -0.825893         1.305602        -0.157665
 O        -2.245481         1.339297        -0.691556
 H        -3.957009         0.816259        -3.018529
 H        -4.636829        -0.460557        -1.886511
 H        -4.385073         1.237105        -1.377066
 H        -1.675424        -1.108678        -2.966173
 H        -0.505933         0.040240        -2.277842
 H        -2.508882        -2.106747        -1.249441
 H        -2.124824        -0.754360         1.231819
 H        -0.989013        -2.088290         0.772530
 H        -0.892579         1.832964         0.793797
 H        -0.088939         1.716801        -0.783521
