19
Iteration:  2507
 C        -3.735980         0.832324        -2.076053
 C        -2.516477         0.165311        -1.450260
 C        -1.927817        -0.934553        -2.235622
 C        -2.247025        -1.228898        -0.797308
 C        -1.147960        -1.390920         0.278813
 C        -0.273744        -0.193397         0.366422
 O         0.939050        -0.127242         0.345514
 C        -1.080303         1.164601         0.333829
 O        -1.787774         1.314981        -0.897498
 H        -3.445193         1.783608        -2.580745
 H        -4.037469         0.277217        -2.979103
 H        -4.548286         0.903149        -1.340895
 H        -2.664946        -1.289512        -2.987032
 H        -0.871549        -0.949698        -2.556196
 H        -3.166322        -1.813931        -0.561358
 H        -1.765261        -1.670924         1.213101
 H        -0.466061        -2.261504         0.042748
 H        -1.740199         1.074483         1.210668
 H        -0.367606         2.008094         0.483274
