19
Iteration:  2690
 C        -3.924208         0.835001        -1.674553
 C        -2.532157         0.187925        -1.427184
 C        -2.174844        -0.962331        -2.390566
 C        -2.183283        -1.167110        -0.905270
 C        -0.901326        -1.325441        -0.244968
 C        -0.337638        -0.116099         0.548481
 O         0.810801        -0.173786         1.036158
 C        -1.079708         1.256668         0.155002
 O        -1.482527         1.065793        -1.240522
 H        -3.682949         1.845907        -2.088970
 H        -4.546255         0.392279        -2.493059
 H        -4.483875         1.032299        -0.754112
 H        -3.014972        -1.405584        -2.976995
 H        -1.078258        -0.909029        -2.786872
 H        -3.102427        -1.719872        -0.555606
 H        -0.780090        -2.166140         0.381182
 H        -0.178447        -1.336713        -1.162496
 H        -1.937443         1.237425         0.820704
 H        -0.648528         2.279610         0.319199
