19
Iteration:   647
 C        -4.088991         0.638775        -1.466015
 C        -2.615267         0.169853        -1.541806
 C        -1.842549        -0.834373        -2.376479
 C        -2.170342        -1.139865        -0.911809
 C        -0.990820        -1.362410         0.052775
 C        -0.277894        -0.046554         0.408510
 O         0.852099        -0.123191         0.889822
 C        -1.070283         1.227746         0.052476
 O        -1.560973         1.107803        -1.324942
 H        -4.270672         1.703167        -1.781600
 H        -4.712973         0.007481        -2.122208
 H        -4.552169         0.651382        -0.512671
 H        -2.304676        -1.411017        -3.142287
 H        -0.887131        -0.442599        -2.556589
 H        -3.068181        -1.765089        -0.916519
 H        -1.339218        -1.752912         0.975355
 H        -0.304746        -2.090806        -0.299779
 H        -1.913767         1.405137         0.760093
 H        -0.427787         2.136120         0.094708
