19
Iteration:  4857charge 0 multiplicity 1
 C        -3.955421         0.703567        -1.718981
 C        -2.554900         0.238778        -1.460705
 C        -1.646368        -0.506135        -2.419097
 C        -2.158138        -1.182440        -1.148502
 C        -1.440487        -1.345563         0.238755
 C        -0.301846        -0.263087         0.323383
 O         0.751940        -0.338580         0.947101
 C        -0.608834         1.009537        -0.312210
 O        -1.883849         1.283029        -0.685381
 H        -4.275919         0.083930        -2.569256
 H        -4.624674         0.410768        -0.916487
 H        -4.022899         1.892957        -1.889466
 H        -2.048816        -0.892865        -3.330545
 H        -0.642252        -0.038580        -2.734815
 H        -3.003559        -1.865767        -1.366370
 H        -1.970554        -1.014151         1.135994
 H        -0.949799        -2.361260         0.210408
 H        -0.316419         1.684714         0.548685
 H         0.139439         1.160941        -1.130740
