19
Iteration:  1746
 C        -3.891213         0.509584        -1.639901
 C        -2.467621         0.205697        -1.503643
 C        -1.841191        -0.739944        -2.547068
 C        -2.205794        -1.169164        -1.027672
 C        -1.405203        -1.193587         0.326790
 C        -0.295142        -0.189183         0.499544
 O         0.899518        -0.348402         0.677922
 C        -0.853947         1.156488         0.121157
 O        -1.653826         1.361491        -1.118701
 H        -4.182091         1.229549        -2.383414
 H        -4.505622        -0.372064        -1.612283
 H        -4.267467         0.840711        -0.737476
 H        -2.461826        -0.946175        -3.374668
 H        -0.822883        -0.590908        -2.866250
 H        -3.121623        -1.817519        -0.893256
 H        -2.227541        -0.867332         1.055299
 H        -0.981787        -2.161133         0.606212
 H        -1.568310         1.672781         0.806922
 H        -0.065385         1.874169        -0.150434
