19
Iteration:  4626
 C        -3.898882         0.605105        -1.713680
 C        -2.491743         0.234470        -1.410366
 C        -1.879975        -0.471709        -2.580166
 C        -2.198394        -1.212467        -1.170922
 C        -1.290273        -1.312892        -0.033790
 C        -0.228586        -0.214977         0.362528
 O         0.610456        -0.375835         1.225667
 C        -0.421085         1.108235        -0.415626
 O        -1.932948         1.288366        -0.555525
 H        -4.445329        -0.253809        -2.174228
 H        -4.277087         0.912013        -0.806435
 H        -4.048577         1.495585        -2.462841
 H        -2.558382        -0.572282        -3.434491
 H        -0.851000        -0.381801        -3.000607
 H        -3.045854        -1.870166        -1.089589
 H        -1.895611        -1.392690         0.933660
 H        -0.776853        -2.359438         0.194746
 H        -0.072720         1.969452         0.167238
 H         0.218059         1.053982        -1.316075
