19
Iteration:   311
 C        -3.819611         0.585794        -1.187087
 C        -2.493751         0.124325        -1.549863
 C        -2.171960        -0.941791        -2.538375
 C        -2.112227        -1.209776        -1.012108
 C        -1.022063        -1.313728         0.004101
 C        -0.368463         0.035040         0.449226
 O         0.690081         0.147233         1.028677
 C        -1.122577         1.245310        -0.053397
 O        -1.345209         0.978347        -1.420408
 H        -3.891683         0.734498        -0.071569
 H        -4.041514         1.527412        -1.718222
 H        -4.478607        -0.184620        -1.508057
 H        -2.975323        -1.411094        -3.083636
 H        -1.239828        -0.909923        -3.136697
 H        -3.075384        -1.783791        -0.688527
 H        -1.474819        -1.696279         0.957751
 H        -0.304936        -2.099813        -0.273010
 H        -2.041863         1.473277         0.546440
 H        -0.461009         2.078789         0.038320
