19
Iteration:  2398
 C        -3.931085         0.652537        -1.485336
 C        -2.520598         0.201873        -1.614013
 C        -2.060574        -0.940461        -2.541696
 C        -2.261312        -1.119190        -1.112859
 C        -1.097957        -1.261268        -0.091319
 C        -0.210870        -0.088673         0.442538
 O         0.827304        -0.151516         1.071861
 C        -0.981873         1.235591         0.180604
 O        -1.477203         1.121428        -1.192117
 H        -4.171251         1.486466        -2.210911
 H        -4.690642        -0.209646        -1.571151
 H        -4.153325         1.071383        -0.463779
 H        -2.934457        -1.372064        -3.115236
 H        -1.066687        -0.849927        -3.028179
 H        -3.173853        -1.690282        -0.865764
 H        -1.708148        -1.452225         0.868543
 H        -0.423702        -2.144860         0.003071
 H        -1.828395         1.309419         0.941383
 H        -0.470221         2.201397         0.182470
