19
Iteration:  2637
 C        -3.921372         0.740325        -1.596247
 C        -2.460357         0.232243        -1.551013
 C        -1.823820        -0.836453        -2.458071
 C        -2.147271        -1.152973        -0.930051
 C        -1.162715        -1.445417         0.194074
 C        -0.325331        -0.238397         0.436454
 O         0.878443        -0.200212         0.763032
 C        -1.076744         1.095769         0.072723
 O        -1.724025         1.391796        -1.152196
 H        -4.111931         1.323287        -2.531570
 H        -4.618095        -0.100097        -1.519424
 H        -4.162916         1.490226        -0.844613
 H        -2.289417        -1.347280        -3.322434
 H        -0.755852        -0.460287        -2.616310
 H        -3.068858        -1.775881        -1.007494
 H        -1.597029        -1.726918         1.163558
 H        -0.474912        -2.290274        -0.201432
 H        -1.823446         1.170503         0.914038
 H        -0.359684         1.947497         0.327912
