19
Iteration:  2963
 C        -3.865237         0.736849        -1.240390
 C        -2.513367         0.165620        -1.452479
 C        -2.282396        -0.951737        -2.458648
 C        -2.108998        -1.175451        -0.955145
 C        -0.672830        -1.263188        -0.440696
 C        -0.335720        -0.107429         0.384121
 O         0.139278        -0.163760         1.529856
 C        -0.723515         1.240031        -0.220296
 O        -1.417833         1.132044        -1.433596
 H        -4.154509         1.624012        -1.843547
 H        -4.507212        -0.122741        -1.267146
 H        -3.843193         1.172198        -0.204708
 H        -3.103842        -1.384157        -3.003827
 H        -1.430613        -0.832045        -3.175161
 H        -2.859943        -1.680342        -0.292593
 H        -0.463615        -2.219814         0.043330
 H        -0.007283        -1.215159        -1.301401
 H        -1.231313         1.780269         0.645644
 H         0.260416         1.678836        -0.373097
