19
Iteration:  4364charge 0 multiplicity 1
 C        -3.805165         0.584822        -1.915156
 C        -2.485186         0.289621        -1.360875
 C        -1.540179        -0.643424        -2.265595
 C        -2.279308        -1.153589        -1.045144
 C        -1.416319        -1.340722         0.206540
 C        -0.395344        -0.230173         0.298182
 O         0.760624        -0.502132         0.608988
 C        -0.652890         1.284730        -0.099947
 O        -1.987183         1.365039        -0.619783
 H        -4.233979        -0.194562        -2.522868
 H        -4.531318         0.834221        -1.143341
 H        -3.884968         1.499412        -2.626818
 H        -1.911513        -0.856454        -3.263948
 H        -0.495214        -0.729239        -2.240922
 H        -3.079633        -1.938225        -1.186246
 H        -2.033508        -1.329356         1.154292
 H        -0.702564        -2.140238         0.329311
 H        -0.538314         1.934835         0.831634
 H         0.106418         1.646828        -0.805853
