19
Iteration:  3596
 C        -3.762643         0.716557        -0.918978
 C        -2.503980         0.213048        -1.387303
 C        -2.100992        -0.666480        -2.549037
 C        -1.954746        -1.193155        -1.111517
 C        -0.664316        -1.402595        -0.469226
 C        -0.381783        -0.192784         0.312225
 O        -0.190113        -0.273167         1.533259
 C        -0.525121         1.109049        -0.385917
 O        -1.624764         1.303426        -1.312499
 H        -4.553445         0.315446        -1.550960
 H        -4.117362         0.195297         0.054282
 H        -4.025516         1.754697        -0.840459
 H        -2.723759        -1.037000        -3.342348
 H        -1.174465        -0.280456        -3.010060
 H        -2.753976        -1.837498        -0.890730
 H        -0.636347        -2.274593         0.164945
 H         0.228753        -1.594675        -1.070368
 H        -0.645006         1.984052         0.310804
 H         0.322548         1.319596        -1.069799
