19
Iteration:  3302
 C        -3.993988         0.636177        -1.668716
 C        -2.555543         0.312837        -1.422783
 C        -1.723883        -0.601822        -2.475173
 C        -2.191187        -1.143011        -1.101642
 C        -1.158570        -1.473518        -0.008574
 C        -0.277872        -0.272813         0.368195
 O         0.747804        -0.262968         1.042450
 C        -0.671158         1.067786        -0.229072
 O        -1.950998         1.361298        -0.758934
 H        -4.152859         1.004603        -2.669469
 H        -4.601885        -0.267411        -1.674285
 H        -4.430264         1.263547        -0.905907
 H        -2.175519        -0.881033        -3.399074
 H        -0.681061        -0.359328        -2.457003
 H        -3.161563        -1.720052        -1.045674
 H        -1.644091        -1.600909         0.977138
 H        -0.598114        -2.350209        -0.186536
 H        -0.399646         1.865208         0.431974
 H         0.143446         1.201116        -0.978188
