19
Iteration:  1976
 C        -3.901283         0.869961        -1.762046
 C        -2.504856         0.224425        -1.437240
 C        -2.025770        -0.835950        -2.302902
 C        -2.200505        -1.141187        -0.798843
 C        -0.991257        -1.495738         0.107223
 C        -0.341226        -0.199190         0.373103
 O         0.785660        -0.130354         0.813140
 C        -1.050613         1.071972         0.128866
 O        -1.541729         1.246437        -1.262219
 H        -3.554741         1.864330        -2.156341
 H        -4.451602         0.295691        -2.583272
 H        -4.607816         1.015811        -0.922566
 H        -2.665442        -1.496910        -2.883057
 H        -1.069398        -0.614259        -2.856757
 H        -3.053310        -1.780869        -0.670431
 H        -1.380093        -1.859963         0.998774
 H        -0.357786        -2.218303        -0.346101
 H        -1.969193         1.055344         0.729665
 H        -0.407037         1.986327         0.331646
