19
Iteration:  1344charge 0 multiplicity 1
 C        -3.970888         0.623068        -1.489129
 C        -2.500831         0.258430        -1.449373
 C        -2.189870        -0.852174        -2.445440
 C        -2.225901        -1.151739        -0.880090
 C        -0.906512        -1.366089        -0.178644
 C        -0.310256        -0.138752         0.447002
 O         0.529471        -0.298244         1.307225
 C        -0.727042         1.286792        -0.132666
 O        -1.495494         1.265927        -1.390236
 H        -4.205460         1.208790        -2.392341
 H        -4.643028        -0.196606        -1.291669
 H        -4.073457         1.325434        -0.706635
 H        -3.029235        -1.234964        -3.066351
 H        -1.208649        -0.787474        -2.893080
 H        -3.017354        -1.649686        -0.384998
 H        -0.968418        -2.216949         0.608378
 H         0.001976        -1.614214        -0.843313
 H        -1.362382         1.875615         0.553069
 H         0.127184         1.923804        -0.550846
