19
Iteration:  2562
 C        -3.833507         0.600819        -1.877698
 C        -2.458654         0.209783        -1.425345
 C        -1.741794        -0.861752        -2.314007
 C        -2.209367        -1.085748        -0.881637
 C        -1.243833        -1.302567         0.361354
 C        -0.336070        -0.200005         0.372198
 O         0.887897        -0.319459         0.354331
 C        -1.081311         1.144575         0.244675
 O        -1.720393         1.476837        -0.982289
 H        -3.811143         1.557269        -2.451199
 H        -4.195495        -0.262209        -2.424530
 H        -4.646161         0.706405        -1.141205
 H        -2.332503        -1.284039        -3.089505
 H        -0.682886        -0.806681        -2.652435
 H        -3.153219        -1.661219        -1.001673
 H        -1.960678        -1.418367         1.231650
 H        -0.709803        -2.268732         0.358067
 H        -1.849267         0.990382         1.053197
 H        -0.284510         1.910068         0.556441
