19
Iteration:  1748
 C        -3.899763         0.517482        -1.660008
 C        -2.461636         0.216601        -1.508181
 C        -1.825599        -0.754468        -2.526067
 C        -2.204779        -1.145439        -1.016245
 C        -1.404297        -1.212511         0.328951
 C        -0.289059        -0.195308         0.497219
 O         0.902037        -0.352225         0.667751
 C        -0.865218         1.154096         0.115168
 O        -1.666180         1.363520        -1.112771
 H        -4.182671         1.265638        -2.408730
 H        -4.459909        -0.406632        -1.654978
 H        -4.241841         0.768498        -0.677167
 H        -2.524036        -0.952561        -3.353331
 H        -0.802294        -0.595895        -2.838425
 H        -3.116463        -1.730174        -0.855504
 H        -2.202386        -0.896456         1.075759
 H        -0.986040        -2.143134         0.566397
 H        -1.606393         1.681225         0.799975
 H        -0.042664         1.893337        -0.155448
