19
Iteration:  4923
 C        -3.748837         0.601573        -2.048349
 C        -2.452390         0.305999        -1.412882
 C        -1.766137        -0.685759        -2.286031
 C        -2.458743        -1.192900        -0.958160
 C        -1.281531        -1.371816         0.071751
 C        -0.302046        -0.251371         0.228329
 O         0.834746        -0.380964         0.717838
 C        -0.711004         1.207277         0.031279
 O        -1.918050         1.378711        -0.572400
 H        -4.216079        -0.260433        -2.510647
 H        -4.501136         0.981716        -1.301420
 H        -3.738946         1.546674        -2.728248
 H        -2.172303        -0.897432        -3.320740
 H        -0.685668        -0.669809        -2.304405
 H        -3.455715        -1.627320        -0.855902
 H        -1.768291        -1.518722         1.016860
 H        -0.644457        -2.290835        -0.058132
 H        -0.746344         1.801671         0.983611
 H         0.093724         1.645505        -0.586953
