19
Iteration:  2372
 C        -4.012494         0.706103        -1.547422
 C        -2.529860         0.192500        -1.471445
 C        -2.139350        -0.808379        -2.449335
 C        -2.213319        -1.116707        -0.892375
 C        -0.866603        -1.413898        -0.101756
 C        -0.295537        -0.148378         0.450794
 O         0.691403        -0.147126         1.155691
 C        -1.013049         1.222641        -0.001616
 O        -1.398621         1.148278        -1.359762
 H        -4.083209         1.725260        -1.871353
 H        -4.658199         0.096243        -2.180637
 H        -4.446843         0.655921        -0.541829
 H        -2.939117        -1.138221        -3.053043
 H        -1.189082        -0.625423        -2.916381
 H        -3.069298        -1.685973        -0.579803
 H        -0.982087        -2.214512         0.654804
 H         0.021472        -1.860478        -0.662896
 H        -1.872603         1.330557         0.647834
 H        -0.421044         2.124812         0.084593
