19
Iteration:  4326
 C        -4.096236         0.665914        -1.932331
 C        -2.558691         0.313743        -1.549762
 C        -1.670509        -0.540538        -2.380542
 C        -2.204218        -1.001355        -0.968708
 C        -1.270484        -1.342203         0.286402
 C        -0.216444        -0.281423         0.341748
 O         0.879885        -0.477227         0.816965
 C        -0.736845         1.019084        -0.005278
 O        -1.903192         1.327429        -0.817075
 H        -4.415589        -0.376221        -2.167183
 H        -4.646978         1.144043        -1.058201
 H        -3.892160         1.285146        -2.732746
 H        -2.160756        -1.057504        -3.270456
 H        -0.604609        -0.215983        -2.505325
 H        -2.801063        -1.835220        -1.189630
 H        -1.965139        -1.244739         1.102851
 H        -0.889112        -2.417494         0.088189
 H        -1.040235         1.455102         0.918398
 H         0.018183         1.691817        -0.514760
