19
Iteration:  2290charge 0 multiplicity 1
 C        -3.945380         0.720563        -1.092381
 C        -2.476891         0.235033        -1.443423
 C        -2.356961        -0.874807        -2.386363
 C        -1.978097        -1.201123        -0.933608
 C        -0.592392        -1.294458        -0.426129
 C        -0.484268        -0.118662         0.419659
 O         0.126244        -0.120352         1.472669
 C        -0.792881         1.238920        -0.226144
 O        -1.247961         1.023438        -1.604986
 H        -4.118355         1.602431        -1.734101
 H        -4.661241        -0.120758        -1.378288
 H        -4.143821         1.002556        -0.058954
 H        -3.287625        -1.346684        -2.730642
 H        -1.468700        -0.937206        -3.121743
 H        -2.852027        -1.571787        -0.424657
 H        -0.319125        -2.265078        -0.040288
 H         0.049276        -0.849315        -1.154971
 H        -1.575688         1.666354         0.413006
 H         0.033872         1.931309        -0.430558
