19
Iteration:  3833
 C        -4.064943         0.671602        -1.368391
 C        -2.566625         0.277518        -1.561076
 C        -1.927398        -0.642019        -2.660889
 C        -2.114045        -1.083319        -1.240878
 C        -1.104102        -1.381682        -0.146779
 C        -0.336492        -0.207177         0.467171
 O         0.628697        -0.337399         1.228834
 C        -0.758737         1.207180         0.108171
 O        -1.554340         1.181003        -1.137829
 H        -4.820062        -0.093672        -1.464408
 H        -3.939330         1.172825        -0.454877
 H        -4.238670         1.416221        -2.185144
 H        -2.702239        -0.933201        -3.373588
 H        -1.009767        -0.396309        -3.132237
 H        -2.931930        -1.863882        -1.184709
 H        -1.548822        -1.866810         0.775839
 H        -0.382183        -2.306356        -0.265107
 H        -1.298263         1.780879         0.968718
 H         0.340517         1.518140        -0.145529
