19
Iteration:   679charge 0 multiplicity 1
 C        -3.776131         0.825991        -1.322083
 C        -2.469609         0.074471        -1.518546
 C        -2.152358        -0.982803        -2.553167
 C        -2.080861        -1.330133        -1.097051
 C        -0.944831        -1.478896        -0.080671
 C        -0.323463        -0.033594         0.421689
 O         0.716808         0.151283         1.008288
 C        -1.153627         1.182475         0.124389
 O        -1.545628         1.117018        -1.273249
 H        -3.724633         1.614927        -2.095184
 H        -4.599819         0.180388        -1.609175
 H        -3.919285         1.203839        -0.355730
 H        -3.078693        -1.217205        -3.014325
 H        -1.360811        -0.903418        -3.217100
 H        -2.992774        -1.868801        -0.771697
 H        -1.432237        -1.596875         0.840126
 H        -0.084440        -2.122569        -0.093725
 H        -2.010182         1.269563         0.783994
 H        -0.524702         2.092656         0.227013
