19
Iteration:  1661charge 0 multiplicity 1
 C        -3.839135         0.753350        -1.588071
 C        -2.428388         0.227072        -1.464562
 C        -2.314142        -0.922849        -2.408008
 C        -2.222895        -1.138810        -0.869694
 C        -0.838332        -1.376727        -0.247712
 C        -0.274181        -0.149365         0.312628
 O         0.593644        -0.113617         1.166651
 C        -1.004030         1.129818         0.091653
 O        -1.431752         1.209634        -1.278212
 H        -3.738579         1.688757        -2.269405
 H        -4.587424         0.079972        -2.101581
 H        -4.207678         1.259187        -0.622873
 H        -3.146680        -1.357100        -2.903939
 H        -1.316963        -1.076844        -2.840818
 H        -3.094190        -1.437640        -0.248207
 H        -1.031090        -2.031434         0.621093
 H        -0.173287        -1.958379        -0.823610
 H        -1.744149         1.096925         0.846336
 H        -0.299098         1.966287         0.369717
