19
Iteration:  1330charge 0 multiplicity 1
 C        -4.024288         0.744374        -1.616695
 C        -2.583773         0.239709        -1.404972
 C        -2.126716        -0.830078        -2.312602
 C        -2.201041        -1.149934        -0.894338
 C        -0.918090        -1.446878        -0.155304
 C        -0.185825        -0.166854         0.361048
 O         0.606875        -0.246407         1.285240
 C        -0.746749         1.248181        -0.162622
 O        -1.587085         1.274486        -1.327419
 H        -4.078236         1.075631        -2.685751
 H        -4.584900        -0.224123        -1.627798
 H        -4.522570         1.403351        -0.896445
 H        -2.818720        -1.277066        -3.077205
 H        -1.080571        -0.697478        -2.626626
 H        -3.104647        -1.744765        -0.640890
 H        -1.143632        -1.940708         0.780552
 H        -0.343228        -2.129225        -0.742802
 H        -1.213290         1.582694         0.799969
 H         0.202126         1.877177        -0.217998
