19
Iteration:  3511
 C        -3.873093         0.815334        -1.004798
 C        -2.536642         0.181350        -1.391846
 C        -2.226914        -0.871299        -2.425901
 C        -1.983494        -1.205564        -1.053832
 C        -0.539523        -1.318486        -0.562012
 C        -0.393823        -0.117468         0.353055
 O        -0.143469        -0.383966         1.485046
 C        -0.625627         1.262800        -0.235864
 O        -1.444942         1.228519        -1.457104
 H        -4.063423         1.660692        -1.669190
 H        -4.705299         0.067581        -0.873611
 H        -3.597177         1.203530        -0.058487
 H        -3.026207        -1.423348        -2.960910
 H        -1.228756        -0.550704        -2.924890
 H        -2.638645        -1.862514        -0.496688
 H        -0.404167        -2.263850        -0.003233
 H         0.268969        -1.059151        -1.332230
 H        -1.076868         1.909822         0.511580
 H         0.200697         1.867923        -0.623206
