19
Iteration:  2684charge 0 multiplicity 1
 C        -3.910657         0.778226        -1.723361
 C        -2.555713         0.201264        -1.407603
 C        -2.179194        -0.925988        -2.402870
 C        -2.238287        -1.169897        -0.922330
 C        -0.917290        -1.296734        -0.220763
 C        -0.285469        -0.089298         0.491054
 O         0.793671        -0.188154         1.001616
 C        -1.080454         1.271517         0.193882
 O        -1.452329         1.065759        -1.215819
 H        -3.714600         1.795595        -2.071967
 H        -4.453809         0.139989        -2.399715
 H        -4.569337         0.998005        -0.853562
 H        -2.900769        -1.325952        -3.070792
 H        -1.198269        -0.903770        -2.682467
 H        -3.080564        -1.633668        -0.498271
 H        -0.833838        -2.142343         0.542082
 H        -0.116503        -1.516643        -0.893550
 H        -1.863034         1.146694         1.013951
 H        -0.525988         2.200247         0.404221
