19
Iteration:  3913charge 0 multiplicity 1
 C        -3.815314         0.986993        -1.711624
 C        -2.482558         0.189832        -1.518264
 C        -2.121888        -0.794772        -2.549166
 C        -2.268834        -1.180164        -1.024482
 C        -0.988750        -1.444037        -0.240318
 C        -0.307394        -0.194315         0.571483
 O         0.858250        -0.200382         0.936304
 C        -1.214890         1.103812         0.355390
 O        -1.468245         1.158475        -1.051691
 H        -4.540891         0.411051        -2.246584
 H        -4.292718         1.286963        -0.738142
 H        -3.574305         1.810496        -2.276273
 H        -3.011962        -1.062826        -3.190884
 H        -1.149216        -0.992609        -2.982242
 H        -2.939458        -1.828931        -0.580858
 H        -1.137028        -2.186442         0.551451
 H        -0.223926        -1.742600        -0.961978
 H        -2.118786         1.026236         1.050423
 H        -0.652851         1.971529         0.785859
