19
Iteration:  1453charge 0 multiplicity 1
 C        -3.659230         0.652605        -0.826994
 C        -2.411003         0.174687        -1.439296
 C        -2.452568        -1.029071        -2.318856
 C        -2.034698        -1.138394        -0.836635
 C        -0.557522        -1.116818        -0.671864
 C        -0.398810        -0.067758         0.336297
 O        -0.470465        -0.235210         1.560122
 C        -0.456736         1.265722        -0.439233
 O        -1.318242         1.110318        -1.628818
 H        -3.479005         1.746361        -0.953540
 H        -4.502542         0.352773        -1.447662
 H        -3.694059         0.448858         0.226060
 H        -3.364220        -1.464398        -2.642598
 H        -1.760814        -1.045169        -3.160743
 H        -2.482238        -1.588994         0.024267
 H        -0.128001        -2.118604        -0.414850
 H        -0.035915        -0.758672        -1.523305
 H        -0.767419         2.070736         0.259631
 H         0.637585         1.489942        -0.749090
