19
Iteration:  1905
 C        -3.896826         0.618950        -1.704139
 C        -2.476024         0.247528        -1.495919
 C        -1.692722        -0.733730        -2.312109
 C        -2.148524        -1.056571        -0.916046
 C        -1.345601        -1.400797         0.382994
 C        -0.355225        -0.211012         0.508904
 O         0.822513        -0.354812         0.410404
 C        -1.069732         1.151273         0.151533
 O        -1.599546         1.400081        -1.188416
 H        -4.037707         1.150117        -2.613823
 H        -4.429428        -0.270657        -1.601229
 H        -4.165571         1.200281        -0.836081
 H        -2.115496        -1.291884        -3.131815
 H        -0.632010        -0.623563        -2.499141
 H        -3.074277        -1.641696        -0.865201
 H        -2.077297        -1.461147         1.262027
 H        -0.666947        -2.298231         0.282011
 H        -1.960915         1.220704         0.895201
 H        -0.391677         1.941347         0.311976
