19
Iteration:  4399charge 0 multiplicity 1
 C        -3.840900         0.819283        -2.115957
 C        -2.549872         0.235955        -1.385094
 C        -1.500682        -0.609114        -2.241823
 C        -2.235559        -1.177382        -1.022703
 C        -1.410790        -1.295759         0.413569
 C        -0.239893        -0.263376         0.341369
 O         0.941350        -0.460239         0.540085
 C        -0.732919         1.134640        -0.179727
 O        -2.195384         1.249261        -0.515784
 H        -4.130061         0.180888        -2.962548
 H        -4.609595         0.786078        -1.413988
 H        -3.584539         1.878884        -2.362554
 H        -1.864493        -1.037224        -3.215457
 H        -0.416184        -0.566452        -2.083505
 H        -2.974475        -1.916317        -1.227880
 H        -2.061079        -0.954116         1.266846
 H        -1.235951        -2.341804         0.464140
 H        -0.655124         1.920185         0.621421
 H        -0.096922         1.318572        -1.018562
