19
Iteration:  4673charge 0 multiplicity 1
 C        -4.065844         0.712612        -1.511117
 C        -2.605788         0.271933        -1.501745
 C        -1.667148        -0.460339        -2.459610
 C        -2.203922        -1.157403        -1.200399
 C        -1.210591        -1.487300        -0.011980
 C        -0.295669        -0.229690         0.395058
 O         0.598694        -0.312939         1.248952
 C        -0.555698         0.995681        -0.443487
 O        -1.836583         1.301378        -0.805524
 H        -4.837783         0.117745        -2.016635
 H        -4.177472         1.034928        -0.424563
 H        -3.974716         1.661444        -2.064034
 H        -1.904482        -0.826416        -3.566885
 H        -0.576777        -0.362856        -2.383498
 H        -2.927416        -2.024500        -1.305237
 H        -1.766770        -1.836120         0.914353
 H        -0.493806        -2.274261        -0.011550
 H        -0.160318         1.938121         0.107075
 H         0.055482         1.043560        -1.364643
