19
Iteration:  3522charge 0 multiplicity 1
 C        -3.826267         0.780875        -1.037300
 C        -2.503484         0.184218        -1.336018
 C        -2.261496        -0.836286        -2.460610
 C        -1.960181        -1.234057        -1.060811
 C        -0.543574        -1.300461        -0.610360
 C        -0.374809        -0.194581         0.367023
 O        -0.171090        -0.336960         1.596188
 C        -0.553891         1.228079        -0.344932
 O        -1.522173         1.308973        -1.377163
 H        -4.270492         1.185861        -1.932444
 H        -4.605197         0.005404        -0.769003
 H        -3.847203         1.487860        -0.231938
 H        -3.101654        -1.346659        -2.986394
 H        -1.409430        -0.555675        -3.181317
 H        -2.730895        -1.844009        -0.590454
 H        -0.207467        -2.178874        -0.024770
 H         0.125255        -1.270427        -1.534295
 H        -0.856377         1.930827         0.436775
 H         0.444990         1.529031        -0.722013
