19
Iteration:  2858charge 0 multiplicity 1
 C        -3.644902         0.659435        -0.693677
 C        -2.417315         0.221031        -1.351317
 C        -2.412437        -0.987248        -2.367708
 C        -1.878971        -1.208544        -0.904955
 C        -0.411966        -1.190205        -0.679709
 C        -0.389775        -0.057586         0.326390
 O        -0.770799        -0.152315         1.471717
 C        -0.337020         1.226629        -0.531588
 O        -1.389412         1.136936        -1.533670
 H        -4.152614         1.440724        -1.285156
 H        -4.438277        -0.111771        -0.665786
 H        -3.418500         0.903934         0.360583
 H        -3.314266        -1.452954        -2.647055
 H        -1.629591        -0.868378        -3.128546
 H        -2.566373        -1.770288        -0.219643
 H        -0.100874        -2.164835        -0.082275
 H         0.026558        -1.110059        -1.682954
 H        -0.423326         2.106051         0.089166
 H         0.639623         1.345096        -1.155904
