19
Iteration:  2463charge 0 multiplicity 1
 C        -3.924679         0.675466        -1.745330
 C        -2.472673         0.307421        -1.547558
 C        -1.752369        -0.863467        -2.284554
 C        -2.347582        -1.141628        -0.899525
 C        -1.197122        -1.354046         0.171855
 C        -0.336405        -0.130787         0.413226
 O         0.913316        -0.189901         0.498407
 C        -1.117768         1.144047         0.284397
 O        -1.564512         1.238512        -1.081436
 H        -4.162792         1.242327        -2.688349
 H        -4.625836        -0.204159        -1.727500
 H        -4.108134         1.347671        -0.881809
 H        -2.107789        -1.426747        -3.221274
 H        -0.682852        -0.641284        -2.342084
 H        -3.254852        -1.782104        -0.827640
 H        -1.648655        -1.723052         1.159954
 H        -0.579413        -2.280258        -0.073840
 H        -1.942712         1.059870         0.992429
 H        -0.482198         2.025352         0.372781
