19
Iteration:  1731
 C        -3.989323         0.573751        -1.519271
 C        -2.501360         0.151748        -1.520213
 C        -1.876288        -0.676824        -2.546953
 C        -2.105107        -1.264388        -1.110780
 C        -1.414445        -1.211174         0.283502
 C        -0.303843        -0.115116         0.371391
 O         0.810043        -0.341089         0.777094
 C        -0.803784         1.300764         0.112502
 O        -1.577404         1.225808        -1.123980
 H        -4.063139         1.043128        -2.506506
 H        -4.605753        -0.367809        -1.544707
 H        -4.155964         1.345757        -0.638869
 H        -2.508614        -1.283595        -3.245130
 H        -0.845911        -0.360566        -2.767483
 H        -2.921284        -1.976840        -1.132841
 H        -2.176430        -0.864835         0.961627
 H        -1.050643        -2.228291         0.690719
 H        -1.311612         1.523269         1.019702
 H         0.047636         1.938072         0.018753
