19
Iteration:  3991charge 0 multiplicity 1
 C        -3.811316         0.817294        -1.453630
 C        -2.436633         0.287439        -1.464874
 C        -1.901052        -0.767932        -2.523289
 C        -2.253463        -1.139769        -1.103400
 C        -1.091525        -1.437475        -0.066420
 C        -0.362455        -0.232363         0.358350
 O         0.718261        -0.284925         0.931992
 C        -1.139762         1.095890         0.215265
 O        -1.478938         1.305667        -1.179815
 H        -4.568974         0.050999        -1.548425
 H        -4.078801         1.346785        -0.540922
 H        -4.002284         1.538085        -2.158201
 H        -2.616183        -1.106939        -3.270984
 H        -0.819943        -0.727468        -2.752105
 H        -3.059187        -1.839671        -1.095077
 H        -1.534824        -1.628773         0.954537
 H        -0.416424        -2.211648        -0.340924
 H        -2.087664         0.931301         0.877405
 H        -0.489033         1.873242         0.446520
