19
Iteration:  1611charge 0 multiplicity 1
 C        -3.751627         1.032051        -1.361699
 C        -2.601632         0.106081        -1.529492
 C        -2.353941        -1.106158        -2.423297
 C        -2.160289        -1.201438        -0.849502
 C        -0.593737        -1.196315        -0.459578
 C        -0.354429        -0.086835         0.490188
 O         0.430659        -0.124632         1.418509
 C        -0.978659         1.144947        -0.063280
 O        -1.451624         0.987890        -1.432642
 H        -3.600895         1.872789        -1.966163
 H        -4.704316         0.653711        -1.630105
 H        -3.850652         1.492355        -0.405871
 H        -3.288109        -1.516336        -2.878812
 H        -1.427471        -0.899271        -3.005024
 H        -2.823921        -1.837661        -0.324574
 H        -0.286166        -2.224198        -0.288845
 H        -0.123578        -0.961239        -1.499368
 H        -1.736436         1.517139         0.784575
 H        -0.105864         1.803216        -0.032808
