19
Iteration:  2988charge 0 multiplicity 1
 C        -4.068068         0.715643        -1.499058
 C        -2.526322         0.225223        -1.426540
 C        -2.240500        -0.883126        -2.413789
 C        -2.078693        -1.142289        -0.884784
 C        -0.727674        -1.415532        -0.344610
 C        -0.249150        -0.127353         0.453065
 O         0.410185        -0.262604         1.457086
 C        -0.753791         1.263425        -0.165789
 O        -1.513494         1.277684        -1.404700
 H        -4.222520         1.134467        -2.533758
 H        -4.602754        -0.238864        -1.280343
 H        -4.316573         1.641857        -0.922203
 H        -3.093006        -1.410002        -2.859586
 H        -1.380243        -0.924306        -3.088005
 H        -2.972414        -1.610763        -0.354031
 H        -0.722635        -2.327117         0.377823
 H         0.008650        -1.674619        -1.116633
 H        -1.384272         1.711397         0.689459
 H         0.256614         1.859898        -0.204597
