19
Iteration:  2312
 C        -3.859234         0.764785        -1.307299
 C        -2.534266         0.173300        -1.493672
 C        -2.416643        -1.009743        -2.483317
 C        -2.102773        -1.172289        -0.937313
 C        -0.674873        -1.233209        -0.459694
 C        -0.252978        -0.066578         0.496172
 O         0.355902        -0.166196         1.574797
 C        -0.860594         1.288006        -0.156501
 O        -1.408342         1.052059        -1.492886
 H        -3.928850         1.858440        -1.459977
 H        -4.558643         0.137606        -1.920821
 H        -4.194461         0.558062        -0.283304
 H        -3.361361        -1.443178        -2.851492
 H        -1.571804        -0.993614        -3.264337
 H        -2.903705        -1.689212        -0.394046
 H        -0.666807        -2.084931         0.205068
 H         0.107591        -1.156218        -1.144097
 H        -1.561026         1.881442         0.453108
 H         0.083626         1.854401        -0.384236
