19
Iteration:  3430
 C        -3.834222         0.897027        -1.103987
 C        -2.540910         0.153614        -1.472122
 C        -2.197397        -0.842269        -2.566890
 C        -2.092683        -1.251355        -1.041151
 C        -0.695586        -1.307422        -0.492229
 C        -0.350938        -0.077513         0.408759
 O         0.273194        -0.244759         1.428595
 C        -0.945157         1.209790         0.008275
 O        -1.373574         1.071808        -1.438816
 H        -3.437187         1.948171        -0.989393
 H        -4.514787         0.888335        -1.953044
 H        -4.346727         0.631813        -0.116831
 H        -2.971293        -1.349767        -3.113178
 H        -1.476397        -0.620346        -3.269827
 H        -2.902430        -1.946951        -0.694041
 H        -0.539812        -2.152809         0.226689
 H         0.075788        -1.422638        -1.303871
 H        -1.876369         1.324502         0.660418
 H        -0.335159         2.108012        -0.009068
