19
Iteration:  3102charge 0 multiplicity 1
 C        -3.776340         0.786525        -1.697096
 C        -2.387907         0.161653        -1.535668
 C        -1.730684        -0.953093        -2.337781
 C        -2.276528        -1.167725        -0.959729
 C        -1.282450        -1.387548         0.260697
 C        -0.423588        -0.099446         0.418930
 O         0.787183        -0.058031         0.294007
 C        -1.208841         1.172356         0.403003
 O        -1.451995         1.155710        -1.011962
 H        -3.672675         1.861945        -1.800841
 H        -4.470216         0.455683        -2.483902
 H        -4.435644         0.758052        -0.834937
 H        -2.352459        -1.172808        -3.196699
 H        -0.656840        -1.101471        -2.589871
 H        -3.226888        -1.724035        -0.832458
 H        -1.897303        -1.558515         1.102966
 H        -0.759726        -2.377217         0.062728
 H        -2.145944         1.225601         1.044485
 H        -0.503309         1.952468         0.528234
