19
Iteration:  1064charge 0 multiplicity 1
 C        -3.946241         0.668410        -1.471034
 C        -2.540655         0.112978        -1.460864
 C        -1.831956        -0.865015        -2.537138
 C        -2.071721        -1.197364        -1.051301
 C        -1.235747        -1.205581         0.161021
 C        -0.285918        -0.103952         0.340236
 O         0.765935        -0.296451         0.917114
 C        -0.880179         1.245938         0.002483
 O        -1.682273         1.230352        -1.193426
 H        -3.984884         1.619526        -2.044696
 H        -4.766664        -0.026837        -1.703399
 H        -4.227676         1.075665        -0.462605
 H        -2.360065        -1.568581        -3.174652
 H        -0.808908        -0.512173        -2.901973
 H        -2.923445        -1.846165        -0.933236
 H        -2.009875        -0.976717         1.009909
 H        -0.692756        -2.178468         0.335516
 H        -1.623666         1.507858         0.751436
 H        -0.232882         2.124992        -0.107282
