19
Iteration:  1564
 C        -3.803199         0.610119        -0.980324
 C        -2.454829         0.261732        -1.476847
 C        -2.397181        -0.850467        -2.489293
 C        -2.014259        -1.125976        -0.997718
 C        -0.683301        -1.363877        -0.373511
 C        -0.370420        -0.105119         0.372048
 O        -0.008404        -0.141106         1.535454
 C        -0.682132         1.217320        -0.334007
 O        -1.319191         1.140325        -1.600326
 H        -4.539650         1.072531        -1.644723
 H        -4.288405        -0.252166        -0.503991
 H        -3.781574         1.380187        -0.174496
 H        -3.354219        -1.261467        -2.746370
 H        -1.523955        -0.913309        -3.121632
 H        -2.814746        -1.634679        -0.384870
 H        -0.607253        -2.199578         0.364092
 H         0.128389        -1.561200        -1.076753
 H        -1.270875         1.936245         0.341891
 H         0.336861         1.754941        -0.505824
