19
Iteration:  1375
 C        -3.832030         0.797402        -1.125627
 C        -2.465355         0.224665        -1.546468
 C        -2.330254        -1.028680        -2.536297
 C        -2.166122        -1.180145        -1.059076
 C        -0.805024        -1.324190        -0.462339
 C        -0.392683        -0.121701         0.468387
 O         0.319615        -0.090659         1.490147
 C        -0.828508         1.253785        -0.114623
 O        -1.332903         1.072408        -1.454660
 H        -4.119903         1.666069        -1.773554
 H        -4.563697        -0.016510        -0.956203
 H        -3.542472         1.162137        -0.152692
 H        -3.277488        -1.444742        -2.975084
 H        -1.393526        -0.997763        -3.090472
 H        -2.906203        -1.701685        -0.495152
 H        -0.643346        -2.144998         0.234688
 H         0.036393        -1.277431        -1.110743
 H        -1.512826         1.733927         0.632440
 H         0.159576         1.889071        -0.210300
