19
Iteration:  1358
 C        -3.869998         0.682610        -1.285926
 C        -2.457485         0.191990        -1.567522
 C        -2.260989        -0.949071        -2.480020
 C        -2.189079        -1.112847        -0.987856
 C        -0.880160        -1.267295        -0.258675
 C        -0.419571        -0.072220         0.499580
 O         0.459700        -0.240153         1.356532
 C        -0.753832         1.247807        -0.130614
 O        -1.425610         1.189600        -1.394194
 H        -4.374903         1.161683        -2.116755
 H        -4.514128        -0.199786        -1.226970
 H        -4.054491         1.298218        -0.352765
 H        -3.091560        -1.260539        -3.036616
 H        -1.360607        -1.110966        -3.082585
 H        -3.102149        -1.595452        -0.582734
 H        -0.747190        -2.216520         0.378977
 H        -0.143519        -1.435674        -1.132909
 H        -1.211671         1.898650         0.642081
 H         0.217400         1.651531        -0.191973
