19
Iteration:   340
 C        -3.877337         0.618984        -1.322751
 C        -2.530384         0.126037        -1.593984
 C        -2.002415        -1.090062        -2.462147
 C        -2.126082        -1.285829        -0.990678
 C        -1.067989        -1.213422         0.082926
 C        -0.346061         0.053922         0.418576
 O         0.798894        -0.077044         0.856943
 C        -1.175842         1.294674         0.095587
 O        -1.438474         1.202175        -1.357683
 H        -3.758154         1.504361        -0.737367
 H        -4.351891         0.930733        -2.279216
 H        -4.446697        -0.251303        -0.870718
 H        -2.816027        -1.436569        -3.102980
 H        -0.949718        -1.023649        -2.943977
 H        -2.985172        -1.873767        -0.642012
 H        -1.548180        -1.406751         1.083360
 H        -0.403279        -2.024577        -0.133825
 H        -2.123225         1.327107         0.722275
 H        -0.665259         2.238678         0.326874
