19
Iteration:  3202charge 0 multiplicity 1
 C        -3.798775         0.636676        -1.957226
 C        -2.486921         0.185029        -1.443081
 C        -1.587666        -0.714424        -2.197302
 C        -2.254926        -1.241532        -0.900945
 C        -1.313646        -1.289662         0.236987
 C        -0.329860        -0.177419         0.317735
 O         0.849706        -0.464509         0.397947
 C        -0.852823         1.267811         0.067679
 O        -2.047709         1.404236        -0.670565
 H        -3.608980         1.616760        -2.491993
 H        -4.088759        -0.034133        -2.702074
 H        -4.637595         0.947036        -1.306230
 H        -2.066269        -1.030233        -3.147794
 H        -0.536007        -0.435238        -2.293982
 H        -2.981503        -2.166559        -1.096837
 H        -1.842665        -1.446887         1.167839
 H        -0.543047        -2.108731         0.237665
 H        -0.854063         1.828483         1.068995
 H        -0.000465         1.824278        -0.398775
