19
Iteration:  2603
 C        -3.968739         0.641536        -1.607737
 C        -2.505014         0.175478        -1.404817
 C        -1.639268        -0.745957        -2.373424
 C        -2.172960        -1.237486        -1.070328
 C        -1.377669        -1.234846         0.190633
 C        -0.370051        -0.110015         0.377581
 O         0.817612        -0.308060         0.517289
 C        -0.983645         1.243181         0.207260
 O        -1.605788         1.234541        -1.042939
 H        -4.048737         0.904568        -2.670445
 H        -4.652842        -0.253828        -1.565068
 H        -4.332085         1.350860        -0.869635
 H        -1.730028        -1.207547        -3.444366
 H        -0.590763        -0.196108        -2.342058
 H        -3.005238        -2.044738        -1.034511
 H        -1.946056        -1.255605         1.101755
 H        -0.722221        -2.208006         0.369580
 H        -1.745716         1.293700         1.039083
 H        -0.211215         2.042293         0.141518
