19
Iteration:  3043charge 0 multiplicity 1
 C        -3.869898         0.843159        -1.630042
 C        -2.507786         0.213616        -1.533884
 C        -2.006707        -0.957691        -2.396915
 C        -2.221298        -1.210183        -0.971530
 C        -1.028816        -1.407341        -0.021434
 C        -0.346684        -0.055480         0.453456
 O         0.798120        -0.171794         0.903612
 C        -1.082833         1.196038         0.177062
 O        -1.538979         1.187864        -1.225377
 H        -4.018043         1.081777        -2.714381
 H        -4.678147         0.086515        -1.325093
 H        -3.858812         1.712222        -0.924236
 H        -2.741015        -1.407694        -3.107214
 H        -1.014804        -0.665130        -2.619938
 H        -3.083862        -1.875253        -0.808819
 H        -1.381259        -1.963463         0.916695
 H        -0.247304        -1.998678        -0.505231
 H        -1.875757         1.368183         0.979451
 H        -0.280786         1.973089         0.487379
