19
Iteration:  4198charge 0 multiplicity 1
 C        -3.988527         0.682557        -1.604881
 C        -2.543339         0.276731        -1.521136
 C        -1.740430        -0.570640        -2.474460
 C        -2.167876        -1.199570        -1.155787
 C        -1.189597        -1.346364        -0.010249
 C        -0.250911        -0.294247         0.336819
 O         0.644133        -0.338283         1.207507
 C        -0.590145         1.117952        -0.364687
 O        -1.938869         1.291920        -0.701985
 H        -4.612040         0.013374        -2.258631
 H        -4.481747         1.012652        -0.608818
 H        -3.962086         1.561907        -2.271142
 H        -2.135830        -0.853498        -3.498090
 H        -0.670812        -0.588576        -2.521331
 H        -2.909224        -2.000532        -1.214571
 H        -1.856812        -1.377524         0.906479
 H        -0.736027        -2.373121        -0.041019
 H        -0.252891         2.014687         0.256079
 H         0.160977         1.365316        -1.122124
