19
Iteration:   109
 C        -3.713567         0.557033        -0.679850
 C        -2.486665         0.096001        -1.397396
 C        -2.352547        -1.046254        -2.376056
 C        -1.883429        -1.251778        -0.961991
 C        -0.530024        -1.243625        -0.340590
 C        -0.413538         0.092822         0.324283
 O        -0.309780         0.162219         1.547176
 C        -0.481705         1.191303        -0.679100
 O        -1.527550         1.065472        -1.709027
 H        -4.633259         0.019017        -1.026534
 H        -3.672561         0.296015         0.397012
 H        -3.904028         1.615690        -0.884807
 H        -3.269007        -1.522615        -2.557723
 H        -1.629787        -0.867019        -3.173342
 H        -2.591209        -1.784904        -0.409211
 H        -0.526939        -2.037470         0.373255
 H         0.281656        -1.401984        -1.053636
 H        -0.602729         2.197105        -0.342844
 H         0.443102         1.138969        -1.248696
