19
Iteration:  3516
 C        -3.847097         0.795301        -1.028169
 C        -2.541535         0.169954        -1.349984
 C        -2.226659        -0.862854        -2.422513
 C        -1.974081        -1.213547        -1.096040
 C        -0.540221        -1.315100        -0.595138
 C        -0.394500        -0.160154         0.352016
 O        -0.155541        -0.367374         1.547404
 C        -0.581166         1.225313        -0.292744
 O        -1.473161         1.288992        -1.414363
 H        -4.218942         1.418474        -1.907880
 H        -4.634587         0.106141        -0.818965
 H        -3.665778         1.326211        -0.023215
 H        -3.033614        -1.400450        -2.898498
 H        -1.381242        -0.549891        -2.929847
 H        -2.708858        -1.824062        -0.511017
 H        -0.283031        -2.157744         0.040187
 H         0.153073        -1.136093        -1.371040
 H        -0.999281         1.998552         0.404909
 H         0.260816         1.829560        -0.756629
