19
Iteration:  3536
 C        -3.894419         0.664015        -1.076349
 C        -2.419811         0.218280        -1.419516
 C        -2.364466        -0.732086        -2.542318
 C        -2.000321        -1.164281        -1.041358
 C        -0.466353        -1.378425        -0.593253
 C        -0.333640        -0.151149         0.380661
 O        -0.211073        -0.239773         1.590629
 C        -0.477261         1.149985        -0.258740
 O        -1.544547         1.256405        -1.295330
 H        -4.343912         0.924655        -2.056666
 H        -4.401612        -0.075166        -0.547195
 H        -3.774788         1.559347        -0.457737
 H        -3.414081        -0.974022        -2.889844
 H        -1.500846        -0.753577        -3.208872
 H        -2.602682        -1.952140        -0.473924
 H        -0.426403        -2.427836        -0.321829
 H         0.198705        -1.066170        -1.370238
 H        -0.445918         2.035033         0.360600
 H         0.439378         1.220561        -0.972189
