19
Iteration:  3042charge 0 multiplicity 1
 C        -3.883645         0.837528        -1.630696
 C        -2.510281         0.217457        -1.531032
 C        -2.013764        -0.970388        -2.399604
 C        -2.219094        -1.201922        -0.973161
 C        -1.023173        -1.411508        -0.031562
 C        -0.346409        -0.057302         0.447319
 O         0.799125        -0.169524         0.919076
 C        -1.073207         1.200303         0.178075
 O        -1.540628         1.187496        -1.221745
 H        -4.020081         1.098436        -2.723378
 H        -4.671487         0.096592        -1.324134
 H        -3.836523         1.735912        -0.951185
 H        -2.732836        -1.389807        -3.135627
 H        -1.014788        -0.678126        -2.603157
 H        -3.110439        -1.890468        -0.830015
 H        -1.367302        -1.987411         0.915107
 H        -0.245474        -1.978728        -0.509766
 H        -1.841154         1.404880         0.970371
 H        -0.263324         1.964836         0.474311
