19
Iteration:  4413
 C        -3.851002         0.807238        -2.177367
 C        -2.669442         0.192312        -1.448680
 C        -1.567112        -0.531783        -2.112491
 C        -2.239819        -1.253978        -0.941326
 C        -1.445729        -1.228439         0.294695
 C        -0.174791        -0.288907         0.232640
 O         0.984915        -0.488118         0.591053
 C        -0.763691         1.132834        -0.141190
 O        -2.105003         1.220193        -0.493965
 H        -4.022608         0.292761        -3.144017
 H        -4.820200         0.930119        -1.615748
 H        -3.628373         1.766915        -2.504474
 H        -1.758250        -0.849877        -3.143267
 H        -0.441737        -0.217135        -2.107591
 H        -2.839046        -2.144861        -1.054004
 H        -2.036487        -0.615347         1.007345
 H        -1.087433        -2.180621         0.836111
 H        -0.572478         1.689721         0.749273
 H        -0.153183         1.679313        -0.879506
