19
Iteration:  3989charge 0 multiplicity 1
 C        -3.808443         0.830267        -1.445625
 C        -2.408061         0.283067        -1.489954
 C        -1.905434        -0.766184        -2.517799
 C        -2.269781        -1.144864        -1.094661
 C        -1.090547        -1.447574        -0.054961
 C        -0.369107        -0.241348         0.360057
 O         0.729828        -0.268903         0.931123
 C        -1.157041         1.089644         0.213774
 O        -1.486274         1.306331        -1.190691
 H        -4.578841         0.078087        -1.557542
 H        -4.030311         1.365018        -0.470039
 H        -3.958925         1.585294        -2.149592
 H        -2.612295        -1.116916        -3.328483
 H        -0.861506        -0.731926        -2.676602
 H        -3.010376        -1.846189        -1.084258
 H        -1.589585        -1.719033         0.912839
 H        -0.361884        -2.217087        -0.404576
 H        -2.079067         0.869831         0.897637
 H        -0.512199         1.933192         0.513655
