19
Iteration:  2488charge 0 multiplicity 1
 C        -3.768462         0.653174        -1.916038
 C        -2.420436         0.240286        -1.425327
 C        -1.928949        -0.958921        -2.399517
 C        -2.283416        -1.184266        -0.870595
 C        -1.158100        -1.303177         0.217410
 C        -0.241800        -0.117754         0.289877
 O         0.941350        -0.233866         0.431979
 C        -1.194490         1.188186         0.419668
 O        -1.681454         1.342951        -0.938905
 H        -3.430409         1.496973        -2.649840
 H        -4.358906        -0.073735        -2.481806
 H        -4.401922         1.170636        -1.149544
 H        -2.691286        -1.318309        -3.012210
 H        -0.957422        -1.131422        -2.871352
 H        -3.200218        -1.748413        -0.623376
 H        -1.696322        -1.246014         1.218607
 H        -0.715758        -2.236993         0.323323
 H        -1.996259         1.039518         1.148468
 H        -0.557966         2.129168         0.570314
