19
Iteration:  3133
 C        -3.792163         0.752579        -1.962347
 C        -2.532318         0.224898        -1.398680
 C        -1.678912        -0.825516        -2.159667
 C        -2.232945        -1.214824        -0.812683
 C        -1.209219        -1.365282         0.310373
 C        -0.380285        -0.136508         0.372413
 O         0.837696        -0.272667         0.206793
 C        -1.168896         1.118622         0.316634
 O        -1.626797         1.347596        -0.971718
 H        -3.661044         1.846070        -1.934837
 H        -3.898342         0.418146        -3.059633
 H        -4.660436         0.542216        -1.331161
 H        -2.316422        -1.076563        -2.992408
 H        -0.589525        -0.802392        -2.361325
 H        -2.996269        -1.890737        -0.865680
 H        -1.788415        -1.625375         1.203716
 H        -0.667940        -2.321022         0.027093
 H        -2.004599         1.103568         1.094558
 H        -0.656636         1.995457         0.610239
