19
Iteration:  1844charge 0 multiplicity 1
 C        -3.736076         0.750428        -2.072814
 C        -2.478884         0.178705        -1.489488
 C        -1.881209        -1.021913        -2.305400
 C        -2.388538        -1.163715        -0.851163
 C        -1.250104        -1.245791         0.270415
 C        -0.141135        -0.107769         0.310090
 O         1.023318        -0.338985         0.412239
 C        -0.996450         1.250160         0.362872
 O        -1.857402         1.328162        -0.831926
 H        -3.585520         1.605413        -2.794702
 H        -4.388321        -0.036669        -2.629879
 H        -4.449558         1.119106        -1.237268
 H        -2.592494        -1.433675        -3.044227
 H        -0.824426        -1.172958        -2.475293
 H        -3.377228        -1.700330        -0.728693
 H        -1.745338        -1.110064         1.285948
 H        -0.894766        -2.289054         0.247370
 H        -1.654122         1.265066         1.218591
 H        -0.471644         2.277279         0.329940
