19
Iteration:  2318charge 0 multiplicity 1
 C        -3.853960         0.793292        -1.320170
 C        -2.524931         0.126012        -1.541369
 C        -2.384615        -1.044333        -2.495010
 C        -2.131992        -1.178925        -0.972293
 C        -0.714997        -1.243057        -0.420073
 C        -0.201062        -0.054210         0.475810
 O         0.359276        -0.143692         1.541873
 C        -0.820347         1.311107        -0.108192
 O        -1.463760         1.060976        -1.423338
 H        -3.843138         1.863033        -1.519701
 H        -4.596789         0.426936        -2.050934
 H        -4.187598         0.580280        -0.274849
 H        -3.307373        -1.515095        -2.797606
 H        -1.562324        -1.136278        -3.151886
 H        -2.931258        -1.662810        -0.423123
 H        -0.644976        -2.213863         0.141365
 H         0.088914        -1.320933        -1.268723
 H        -1.471528         1.782516         0.688468
 H        -0.100927         2.030028        -0.495748
