19
Iteration:  2298
 C        -3.948794         0.697653        -1.178814
 C        -2.469891         0.206886        -1.466296
 C        -2.410566        -0.892810        -2.391184
 C        -2.045142        -1.154010        -0.959870
 C        -0.583800        -1.234419        -0.396593
 C        -0.458286        -0.079416         0.534324
 O         0.254994        -0.171163         1.505693
 C        -0.832036         1.213601        -0.242187
 O        -1.280182         1.041042        -1.606338
 H        -4.081405         1.659840        -1.717168
 H        -4.706575         0.096299        -1.779152
 H        -4.225281         0.807477        -0.079544
 H        -3.366707        -1.244376        -2.763841
 H        -1.565976        -0.874000        -3.079204
 H        -2.712559        -1.721229        -0.357610
 H        -0.250056        -2.219689        -0.010652
 H         0.052965        -1.157554        -1.296973
 H        -1.599110         1.830905         0.358239
 H         0.028558         1.841393        -0.292283
