19
Iteration:  3957
 C        -3.813273         1.062069        -1.490218
 C        -2.416124         0.272934        -1.544311
 C        -1.992176        -0.850696        -2.507274
 C        -2.272250        -1.134092        -1.056315
 C        -0.983378        -1.501641        -0.120107
 C        -0.393847        -0.262769         0.493175
 O         0.740645        -0.087432         0.840040
 C        -1.285991         1.011346         0.314290
 O        -1.390856         1.117020        -1.149969
 H        -4.581609         0.519566        -2.006798
 H        -4.074994         1.212508        -0.430430
 H        -3.659880         1.933883        -1.999482
 H        -2.642691        -1.322912        -3.309739
 H        -0.975244        -0.812794        -2.806022
 H        -3.058827        -1.796881        -1.009424
 H        -1.332340        -2.212899         0.656025
 H        -0.194373        -2.063649        -0.643701
 H        -2.266721         1.076122         0.888585
 H        -0.723599         1.861548         0.702441
