19
Iteration:  4988
 C        -3.920442         0.662753        -1.993144
 C        -2.483551         0.211363        -1.434565
 C        -1.480914        -0.504990        -2.201839
 C        -2.133421        -1.179463        -1.057569
 C        -1.546341        -1.237965         0.319439
 C        -0.277821        -0.181104         0.344365
 O         0.846024        -0.555782         0.475101
 C        -0.722076         1.163539        -0.082839
 O        -2.054936         1.240902        -0.541204
 H        -4.695466        -0.091245        -2.005065
 H        -4.219673         1.561020        -1.380758
 H        -3.683220         0.989713        -3.097331
 H        -1.784749        -0.834207        -3.248148
 H        -0.486261        -0.101734        -2.088714
 H        -2.861602        -1.872692        -1.446230
 H        -2.230091        -0.925337         1.081776
 H        -1.223721        -2.236371         0.699502
 H        -0.505577         1.823180         0.794503
 H        -0.011420         1.534552        -0.810093
