19
Iteration:  3574charge 0 multiplicity 1
 C        -3.926612         0.545290        -0.976909
 C        -2.529389         0.233107        -1.377215
 C        -2.184675        -0.704949        -2.564030
 C        -2.013145        -1.157753        -1.126946
 C        -0.645837        -1.371037        -0.513229
 C        -0.365165        -0.193336         0.366773
 O        -0.229289        -0.286679         1.587723
 C        -0.329593         1.237268        -0.375935
 O        -1.505310         1.333964        -1.296630
 H        -4.715500         0.474282        -1.725827
 H        -4.316746        -0.084845        -0.081610
 H        -4.002278         1.606741        -0.690173
 H        -3.037875        -0.960338        -3.125597
 H        -1.283638        -0.691507        -3.206121
 H        -2.812533        -1.744776        -0.799022
 H        -0.428295        -2.243290         0.100092
 H         0.138242        -1.403281        -1.291744
 H        -0.177190         2.173390         0.243066
 H         0.484497         1.089237        -1.096173
