19
Iteration:  3625charge 0 multiplicity 1
 C        -3.887776         0.734809        -0.980179
 C        -2.507515         0.200555        -1.473473
 C        -2.261676        -0.684459        -2.672382
 C        -1.965260        -1.258820        -1.229035
 C        -0.668001        -1.457551        -0.519624
 C        -0.371429        -0.207606         0.442877
 O        -0.026917        -0.175263         1.586207
 C        -0.564697         1.166387        -0.209415
 O        -1.488708         1.263895        -1.301181
 H        -4.676121        -0.068153        -1.164405
 H        -3.819020         0.842924         0.061911
 H        -4.362433         1.632746        -1.513671
 H        -3.035468        -0.990787        -3.328913
 H        -1.354012        -0.414982        -3.193832
 H        -2.803278        -1.849005        -0.869850
 H        -0.756850        -2.295557         0.189427
 H         0.290506        -1.525624        -1.071273
 H        -0.830774         1.817345         0.695992
 H         0.484085         1.545695        -0.503504
