19
Iteration:  1464
 C        -3.728307         0.630166        -0.795019
 C        -2.377436         0.205999        -1.390021
 C        -2.407158        -0.987128        -2.303698
 C        -1.982886        -1.076088        -0.819317
 C        -0.517990        -1.244236        -0.678092
 C        -0.416536        -0.092597         0.298886
 O        -0.525045        -0.209423         1.484288
 C        -0.440310         1.271940        -0.461430
 O        -1.279200         1.155404        -1.601310
 H        -4.104548         1.669263        -0.873768
 H        -4.575112         0.110578        -1.295692
 H        -3.962421         0.333390         0.212334
 H        -3.350761        -1.392381        -2.563110
 H        -1.504679        -1.108331        -2.889124
 H        -2.741312        -1.445853        -0.155377
 H        -0.225714        -2.177942        -0.130454
 H        -0.052278        -1.102397        -1.625211
 H        -0.597061         2.200342         0.128802
 H         0.592966         1.313391        -0.993811
