19
Iteration:  1769
 C        -3.944864         0.597542        -1.779639
 C        -2.504529         0.275296        -1.544952
 C        -1.734733        -0.855970        -2.258245
 C        -2.240775        -1.056086        -0.841731
 C        -1.293483        -1.333492         0.285865
 C        -0.301298        -0.204782         0.277659
 O         0.834959        -0.383285         0.610380
 C        -0.884865         1.205705         0.116390
 O        -1.689022         1.421548        -1.072007
 H        -4.005404         1.556924        -2.292636
 H        -4.513282        -0.143416        -2.304139
 H        -4.585456         0.630068        -0.972080
 H        -2.059425        -1.570657        -3.002521
 H        -0.674889        -0.721178        -2.430941
 H        -3.085115        -1.765770        -0.898585
 H        -1.885613        -1.330476         1.268793
 H        -0.752857        -2.253428         0.156648
 H        -1.553010         1.430708         1.011800
 H        -0.168114         2.053889        -0.066260
