19
Iteration:   365charge 0 multiplicity 1
 C        -3.967853         0.687188        -1.629531
 C        -2.599747         0.164748        -1.439132
 C        -1.870172        -0.893463        -2.324771
 C        -2.175314        -1.210342        -0.847448
 C        -1.007002        -1.452493         0.166753
 C        -0.275950        -0.103074         0.328517
 O         0.824163         0.046942         0.762735
 C        -1.058707         1.187950         0.026863
 O        -1.646481         1.158568        -1.241542
 H        -3.933147         1.776017        -1.379772
 H        -4.204494         0.601498        -2.707396
 H        -4.656739         0.096160        -1.073428
 H        -2.490056        -1.331411        -3.121113
 H        -0.869224        -0.647182        -2.588083
 H        -3.150367        -1.799772        -0.643859
 H        -1.359029        -1.678978         1.213026
 H        -0.389233        -2.227664        -0.200856
 H        -1.777329         1.386176         0.910767
 H        -0.359294         2.008661         0.024852
