19
Iteration:   548
 C        -3.902739         0.557434        -2.020828
 C        -2.602334         0.175659        -1.368338
 C        -1.513039        -0.638827        -2.157349
 C        -2.134897        -1.239844        -0.872748
 C        -1.260500        -1.249557         0.372495
 C        -0.271992        -0.165448         0.275414
 O         0.932620        -0.322295         0.454440
 C        -0.825101         1.195831        -0.232397
 O        -2.213242         1.280227        -0.591916
 H        -3.718783         0.758458        -3.117744
 H        -4.765649        -0.119075        -1.973357
 H        -4.324676         1.490842        -1.591409
 H        -1.788738        -1.084456        -3.091953
 H        -0.488831        -0.261076        -2.169998
 H        -2.775575        -2.140644        -1.111964
 H        -1.761712        -1.053519         1.338371
 H        -0.617910        -2.063583         0.600200
 H        -0.770793         1.931105         0.599700
 H        -0.193865         1.619887        -1.069683
