19
Iteration:  4081
 C        -3.853912         0.733686        -1.655605
 C        -2.473061         0.261412        -1.402661
 C        -1.857152        -0.727084        -2.340008
 C        -2.304652        -1.176036        -1.059476
 C        -1.043401        -1.540270        -0.156853
 C        -0.318974        -0.229603         0.264516
 O         0.579646        -0.347213         1.107680
 C        -0.667827         1.224527        -0.127859
 O        -1.876446         1.398842        -0.909129
 H        -4.325899         0.087536        -2.370890
 H        -4.240518         0.814001        -0.706644
 H        -3.606191         1.734453        -2.026337
 H        -2.345188        -0.761860        -3.346313
 H        -0.784379        -0.809107        -2.381115
 H        -3.180775        -1.918207        -0.795750
 H        -1.378654        -1.949683         0.814755
 H        -0.375160        -2.156313        -0.709154
 H        -0.790667         1.840427         0.832171
 H         0.177518         1.765377        -0.581887
