19
Iteration:   106charge 0 multiplicity 1
 C        -3.716492         0.573936        -0.713747
 C        -2.492012         0.090229        -1.367126
 C        -2.344151        -1.054805        -2.374846
 C        -1.887391        -1.245049        -0.956610
 C        -0.488999        -1.256999        -0.359971
 C        -0.426123         0.072183         0.313258
 O        -0.309350         0.171456         1.542457
 C        -0.479735         1.182221        -0.670903
 O        -1.551010         1.075625        -1.690650
 H        -4.687416         0.041021        -1.005857
 H        -3.664229         0.443297         0.427052
 H        -3.865467         1.610633        -0.956109
 H        -3.252058        -1.562412        -2.692511
 H        -1.597190        -0.823455        -3.103242
 H        -2.654246        -1.833267        -0.302744
 H        -0.519668        -2.048555         0.427659
 H         0.329211        -1.455898        -1.078443
 H        -0.612940         2.237044        -0.290384
 H         0.468160         1.139228        -1.339408
