19
Iteration:  2577
 C        -3.888794         0.525109        -1.803717
 C        -2.379530         0.308210        -1.542089
 C        -1.791032        -0.810672        -2.409402
 C        -2.098810        -1.103556        -0.945966
 C        -1.360409        -1.337663         0.344975
 C        -0.368046        -0.175094         0.417511
 O         0.892680        -0.317306         0.381147
 C        -1.023433         1.227551         0.343093
 O        -1.700589         1.349258        -0.970358
 H        -4.079236         1.178606        -2.662527
 H        -4.405700        -0.408130        -2.157118
 H        -4.302801         0.856562        -0.821385
 H        -2.410963        -1.316240        -3.189280
 H        -0.785817        -0.697431        -2.704243
 H        -3.009605        -1.697907        -0.863353
 H        -2.029571        -1.098596         1.225246
 H        -0.946751        -2.318477         0.463237
 H        -1.695061         1.421104         1.170716
 H        -0.284679         1.999761         0.257791
