19
Iteration:  1837charge 0 multiplicity 1
 C        -3.782402         0.787591        -2.164899
 C        -2.473244         0.252186        -1.486702
 C        -1.954680        -1.038228        -2.300813
 C        -2.345747        -1.164740        -0.848865
 C        -1.203291        -1.282268         0.286104
 C        -0.184586        -0.121861         0.327674
 O         1.059015        -0.308495         0.423994
 C        -1.007827         1.257573         0.340416
 O        -1.862544         1.310503        -0.791340
 H        -3.627771         1.721747        -2.697580
 H        -4.361173         0.049903        -2.692866
 H        -4.508232         0.971396        -1.419204
 H        -2.571015        -1.538433        -3.082990
 H        -0.956042        -1.482410        -2.537147
 H        -3.168651        -1.808370        -0.650827
 H        -1.833775        -1.057206         1.217959
 H        -0.777555        -2.267640         0.388908
 H        -1.548330         1.149673         1.320182
 H        -0.169992         1.984213         0.347669
