19
Iteration:  2669charge 0 multiplicity 1
 C        -3.930598         0.711584        -1.734612
 C        -2.491007         0.217914        -1.488739
 C        -2.130381        -0.857256        -2.411804
 C        -2.317939        -1.190190        -0.871617
 C        -0.955005        -1.316843        -0.127476
 C        -0.245897        -0.065073         0.344843
 O         0.809902        -0.172689         0.962061
 C        -1.057923         1.147531         0.251915
 O        -1.454416         1.175080        -1.117265
 H        -4.017120         1.514990        -2.510951
 H        -4.418330        -0.067591        -2.351015
 H        -4.500707         0.898275        -0.817745
 H        -2.971654        -1.074611        -3.110549
 H        -1.036124        -0.874098        -2.800908
 H        -3.176213        -1.888424        -0.594903
 H        -1.224665        -1.674740         0.861909
 H        -0.298906        -2.064223        -0.742829
 H        -1.917193         1.392209         0.832908
 H        -0.376901         2.062476         0.329673
