19
Iteration:  2526charge 0 multiplicity 1
 C        -3.835447         0.871518        -2.065680
 C        -2.580094         0.166991        -1.404751
 C        -1.695095        -0.929851        -2.084446
 C        -2.405726        -1.117935        -0.738704
 C        -1.192201        -1.448445         0.185660
 C        -0.277926        -0.145850         0.334100
 O         0.942697        -0.128162         0.326647
 C        -1.072927         1.097537         0.285347
 O        -1.760103         1.227488        -0.934066
 H        -3.525720         1.848559        -2.412711
 H        -4.080659         0.442987        -3.050169
 H        -4.657906         0.927636        -1.357384
 H        -1.973958        -1.525458        -3.034922
 H        -0.648015        -0.679133        -1.874452
 H        -3.216230        -1.844037        -0.875741
 H        -1.304894        -1.619276         1.229998
 H        -0.540718        -2.230564        -0.359989
 H        -1.746838         1.340551         1.185050
 H        -0.324680         1.855835         0.281965
