19
Iteration:   267
 C        -3.930623         0.772785        -1.361200
 C        -2.606819         0.070397        -1.458339
 C        -2.218768        -1.142091        -2.371825
 C        -2.105885        -1.215920        -0.843857
 C        -0.662865        -1.293110        -0.253769
 C        -0.202076        -0.015262         0.411345
 O         0.490894         0.008415         1.404055
 C        -0.861971         1.265034        -0.262510
 O        -1.662250         1.122339        -1.507020
 H        -4.557614         0.368989        -0.542548
 H        -3.685537         1.788837        -1.010758
 H        -4.416298         0.846548        -2.304689
 H        -3.005206        -1.709668        -2.816261
 H        -1.277854        -0.833762        -2.934003
 H        -2.825061        -1.965081        -0.285103
 H        -0.619970        -2.047318         0.578523
 H         0.011550        -1.572809        -1.076191
 H        -1.440955         1.776738         0.492606
 H        -0.189741         1.986958        -0.611816
