19
Iteration:  4269
 C        -3.871953         0.704258        -1.723914
 C        -2.484257         0.283932        -1.497856
 C        -1.748773        -0.790565        -2.366331
 C        -2.286211        -1.081751        -1.015333
 C        -1.175929        -1.433865        -0.018899
 C        -0.272123        -0.184274         0.230346
 O         0.649030        -0.379090         0.970398
 C        -0.659450         1.206726        -0.016737
 O        -1.908741         1.342610        -0.841537
 H        -4.486834         0.042757        -2.339813
 H        -4.282208         0.873822        -0.753358
 H        -3.914423         1.657501        -2.260254
 H        -2.218084        -1.220128        -3.291494
 H        -0.664791        -0.811448        -2.447871
 H        -3.138771        -1.741513        -1.042075
 H        -1.630860        -1.800591         0.901448
 H        -0.604039        -2.240752        -0.475635
 H        -0.871513         1.493416         1.012954
 H         0.131197         1.911451        -0.293715
