19
Iteration:   742
 C        -3.994490         0.729015        -1.473171
 C        -2.572414         0.176633        -1.439227
 C        -2.259005        -1.042868        -2.375484
 C        -2.135224        -1.204031        -0.819160
 C        -0.592591        -1.250218        -0.460184
 C        -0.264027        -0.072066         0.413767
 O         0.466320        -0.091005         1.388727
 C        -0.913988         1.233970        -0.051065
 O        -1.502012         1.131949        -1.385137
 H        -4.219496         1.049790        -2.482283
 H        -4.755042         0.028938        -1.145794
 H        -4.082251         1.671149        -0.911913
 H        -3.115530        -1.440693        -2.885217
 H        -1.444309        -0.881603        -3.015256
 H        -2.758281        -1.883395        -0.210145
 H        -0.363617        -2.246437        -0.015025
 H        -0.012888        -1.300429        -1.456870
 H        -1.574555         1.484766         0.783767
 H        -0.133343         2.050508        -0.095858
