19
Iteration:  1097
 C        -3.954954         0.602214        -1.897695
 C        -2.463999         0.248872        -1.443868
 C        -1.806502        -0.810913        -2.341016
 C        -2.290816        -1.165056        -0.854936
 C        -1.274635        -1.352427         0.271464
 C        -0.320591        -0.172428         0.416917
 O         0.909775        -0.175367         0.527171
 C        -0.910488         1.165926         0.183529
 O        -1.669591         1.304919        -1.044917
 H        -3.971402         1.467829        -2.579935
 H        -4.481030        -0.237488        -2.388791
 H        -4.442343         0.817292        -0.904459
 H        -2.291858        -1.344067        -3.137443
 H        -0.680294        -0.810213        -2.400738
 H        -3.223742        -1.679721        -0.854803
 H        -1.800667        -1.433910         1.286811
 H        -0.739116        -2.319403         0.170660
 H        -1.542234         1.334969         1.078607
 H        -0.207097         1.977194         0.149025
