19
Iteration:  1887charge 0 multiplicity 1
 C        -3.955065         0.674954        -1.822074
 C        -2.462126         0.333005        -1.502754
 C        -1.636214        -0.772809        -2.165446
 C        -2.200619        -1.154458        -0.787755
 C        -1.340595        -1.576047         0.396295
 C        -0.378034        -0.295428         0.397495
 O         0.818699        -0.254313         0.352316
 C        -1.031017         1.243752         0.175650
 O        -1.603271         1.420877        -1.156278
 H        -3.951302         1.212096        -2.807604
 H        -4.665375        -0.230103        -1.897707
 H        -4.518587         1.348560        -1.094121
 H        -1.987328        -1.294633        -3.079112
 H        -0.671748        -0.322328        -2.341731
 H        -3.128855        -1.796118        -0.905236
 H        -1.913862        -1.728314         1.315045
 H        -0.672499        -2.436536         0.222517
 H        -1.665437         1.440996         1.023843
 H        -0.030074         1.744680         0.272045
