19
Iteration:   978
 C        -3.839487         0.944848        -1.275463
 C        -2.513086         0.155030        -1.398060
 C        -2.375149        -1.089869        -2.358142
 C        -2.075921        -1.193501        -0.911382
 C        -0.548806        -1.203243        -0.583711
 C        -0.249906        -0.065258         0.425407
 O         0.185312        -0.277473         1.571650
 C        -0.904494         1.319460        -0.171412
 O        -1.421561         1.016559        -1.532673
 H        -3.756931         1.618198        -2.076566
 H        -4.728519         0.377711        -1.403980
 H        -3.859895         1.507946        -0.359121
 H        -3.328848        -1.503697        -2.782883
 H        -1.520430        -0.947646        -3.022381
 H        -2.666467        -1.810532        -0.265915
 H        -0.172440        -2.129385        -0.056051
 H         0.076308        -1.094826        -1.450275
 H        -1.816109         1.632627         0.400592
 H        -0.182282         2.134221        -0.166611
