19
Iteration:  1348charge 0 multiplicity 1
 C        -3.965709         0.619384        -1.443132
 C        -2.476055         0.236527        -1.490840
 C        -2.217039        -0.879172        -2.469171
 C        -2.205343        -1.127763        -0.899445
 C        -0.909093        -1.352684        -0.199813
 C        -0.348475        -0.112851         0.479013
 O         0.512227        -0.295833         1.315863
 C        -0.735581         1.292998        -0.152077
 O        -1.473315         1.247650        -1.389896
 H        -4.158032         1.208348        -2.329112
 H        -4.610235        -0.236006        -1.196990
 H        -3.971394         1.334652        -0.541802
 H        -3.079952        -1.172983        -2.999305
 H        -1.216005        -0.845383        -2.918780
 H        -3.108186        -1.626187        -0.456901
 H        -0.820975        -2.124427         0.590579
 H        -0.047012        -1.478106        -0.910069
 H        -1.305880         1.847112         0.615514
 H         0.170279         1.777162        -0.401861
