19
Iteration:  3455
 C        -3.683693         0.882867        -1.002924
 C        -2.403108         0.215382        -1.537184
 C        -2.477212        -0.895215        -2.655622
 C        -2.079499        -1.242638        -1.192292
 C        -0.560493        -1.297010        -0.499748
 C        -0.463909        -0.099037         0.555253
 O         0.244708        -0.139876         1.536582
 C        -1.085807         1.089706        -0.048532
 O        -1.260268         1.084854        -1.456128
 H        -3.553473         1.924500        -0.831738
 H        -4.538569         0.645946        -1.733864
 H        -3.941353         0.496223        -0.038428
 H        -3.508882        -1.281598        -2.811099
 H        -2.029628        -0.985344        -3.658847
 H        -2.876804        -1.707508        -0.685949
 H        -0.295319        -2.310670        -0.127700
 H         0.294131        -0.965087        -1.221368
 H        -1.860905         1.555209         0.587005
 H        -0.206136         1.687815        -0.029240
