19
Iteration:   354charge 0 multiplicity 1
 C        -3.946006         0.668758        -1.497691
 C        -2.451055         0.107950        -1.473371
 C        -1.937973        -0.976117        -2.376990
 C        -2.133120        -1.196565        -0.887058
 C        -1.038097        -1.326567         0.084127
 C        -0.345757        -0.042634         0.314351
 O         0.791773        -0.018466         0.801194
 C        -1.105775         1.228913         0.061310
 O        -1.573086         1.172434        -1.280971
 H        -3.957521         1.691620        -1.031942
 H        -4.388953         0.781758        -2.506573
 H        -4.645047         0.121463        -0.894803
 H        -2.497067        -1.683522        -2.990541
 H        -0.952028        -0.769190        -2.744477
 H        -3.047850        -1.890967        -0.751276
 H        -1.577192        -1.542857         1.053810
 H        -0.284281        -2.062917         0.045997
 H        -2.000874         1.293067         0.787603
 H        -0.452802         2.071471         0.155815
