19
Iteration:  1724charge 0 multiplicity 1
 C        -4.006275         0.643051        -1.516437
 C        -2.561144         0.145718        -1.472170
 C        -1.822999        -0.714458        -2.494507
 C        -2.035276        -1.232107        -1.117339
 C        -1.399637        -1.250378         0.216219
 C        -0.304550        -0.105393         0.312821
 O         0.765766        -0.346821         0.828049
 C        -0.799742         1.298539         0.084471
 O        -1.553384         1.168171        -1.117472
 H        -4.234487         1.152545        -2.455289
 H        -4.658308        -0.174384        -1.239476
 H        -4.198989         1.219681        -0.702927
 H        -2.435623        -1.244350        -3.159699
 H        -0.928209        -0.285597        -2.935447
 H        -2.921741        -1.927592        -1.111177
 H        -2.186437        -0.914675         0.967213
 H        -0.876464        -2.154043         0.546976
 H        -1.535364         1.702473         0.884001
 H        -0.063443         2.087785        -0.170409
