19
Iteration:    41
 C        -3.999538         0.450606        -1.245467
 C        -2.481977         0.179400        -1.400116
 C        -2.413033        -1.134175        -2.228077
 C        -2.031560        -1.129847        -0.769289
 C        -0.552508        -1.160440        -0.484784
 C        -0.259604         0.010305         0.386201
 O         0.023172        -0.107783         1.562058
 C        -0.449059         1.313298        -0.520474
 O        -1.551568         1.213403        -1.527773
 H        -4.425324         0.208010        -0.194348
 H        -4.085965         1.592884        -1.225601
 H        -4.533158        -0.056743        -2.014818
 H        -3.425453        -1.459058        -2.439722
 H        -1.658446        -1.241847        -2.952947
 H        -2.765776        -1.560078         0.051803
 H        -0.167813        -2.070614         0.038989
 H        -0.043178        -1.020231        -1.444328
 H        -0.488902         2.257806         0.069233
 H         0.467730         1.347833        -1.125150
