19
Iteration:  3819
 C        -3.952042         0.732095        -1.312343
 C        -2.550178         0.194137        -1.517945
 C        -1.966133        -0.565890        -2.675548
 C        -2.157967        -1.209521        -1.266404
 C        -1.101377        -1.364233        -0.116219
 C        -0.283226        -0.211599         0.506644
 O         0.606245        -0.338828         1.299791
 C        -0.759602         1.126646        -0.021979
 O        -1.584469         1.249373        -1.214156
 H        -4.648519        -0.116985        -1.518566
 H        -4.230279         0.951013        -0.305004
 H        -4.327870         1.602852        -1.935455
 H        -2.449007        -1.014451        -3.563837
 H        -0.984643        -0.157771        -2.815115
 H        -2.931017        -1.973136        -1.170172
 H        -1.749307        -1.669193         0.697910
 H        -0.332277        -2.041331        -0.437210
 H        -1.230934         1.638108         0.906145
 H        -0.025493         1.819976        -0.221133
