19
Iteration:   532charge 0 multiplicity 1
 C        -3.865109         0.361963        -2.052070
 C        -2.503920         0.177495        -1.369006
 C        -1.543670        -0.584871        -2.206334
 C        -2.135682        -1.179610        -0.964706
 C        -1.441098        -1.198511         0.398488
 C        -0.291557        -0.129176         0.230661
 O         0.920997        -0.294043         0.398825
 C        -0.747916         1.233021        -0.216049
 O        -2.155714         1.264418        -0.393397
 H        -3.772119         0.526303        -3.108242
 H        -4.368686        -0.557600        -1.777292
 H        -4.223789         1.316639        -1.678763
 H        -2.044250        -0.909953        -3.158264
 H        -0.460266        -0.428271        -2.197403
 H        -2.879240        -1.929818        -0.934857
 H        -2.211441        -0.782945         1.073495
 H        -1.191828        -2.291189         0.703260
 H        -0.355496         1.985702         0.472567
 H        -0.209425         1.414598        -1.162242
