19
Iteration:  2705charge 0 multiplicity 1
 C        -3.861458         0.978356        -1.555475
 C        -2.570588         0.161713        -1.567139
 C        -2.183121        -1.023331        -2.407310
 C        -2.220104        -1.227287        -0.870683
 C        -0.763849        -1.314359        -0.263724
 C        -0.316508        -0.122942         0.511214
 O         0.728453        -0.108639         1.149850
 C        -1.170568         1.129504         0.088419
 O        -1.484930         1.124700        -1.301850
 H        -3.624308         2.033452        -1.788506
 H        -4.589244         0.470729        -2.143669
 H        -4.340105         1.040576        -0.553498
 H        -3.016384        -1.441151        -2.915334
 H        -1.317723        -1.028046        -2.961762
 H        -2.932109        -1.887454        -0.460943
 H        -0.566483        -2.353104         0.179533
 H         0.035970        -1.302824        -1.021757
 H        -2.011783         1.420429         0.834452
 H        -0.305480         1.841299         0.200431
