19
Iteration:  4200
 C        -4.006786         0.689827        -1.621244
 C        -2.555215         0.262946        -1.513546
 C        -1.764515        -0.571291        -2.472486
 C        -2.147129        -1.181352        -1.147484
 C        -1.185416        -1.356249        -0.006176
 C        -0.247577        -0.287768         0.343048
 O         0.641184        -0.342739         1.195848
 C        -0.573402         1.105514        -0.336652
 O        -1.934550         1.292827        -0.722029
 H        -4.562114         0.004907        -2.276302
 H        -4.483960         0.955860        -0.667549
 H        -3.933408         1.601648        -2.296938
 H        -2.190911        -0.814726        -3.449524
 H        -0.663103        -0.541085        -2.520862
 H        -2.924219        -2.034855        -1.236649
 H        -1.832227        -1.362288         0.945403
 H        -0.663936        -2.310858        -0.038035
 H        -0.285426         2.044439         0.305103
 H         0.170900         1.345085        -1.109321
