19
Iteration:  2889
 C        -3.547900         0.762507        -0.578764
 C        -2.345528         0.146804        -1.444889
 C        -2.477204        -0.952692        -2.435422
 C        -1.877722        -1.313976        -1.027265
 C        -0.415522        -1.278852        -0.624633
 C        -0.481892        -0.033735         0.335460
 O        -0.615979        -0.081811         1.563409
 C        -0.623346         1.311302        -0.433457
 O        -1.306682         1.051926        -1.665584
 H        -3.532928         1.875744        -0.789777
 H        -4.525594         0.338613        -0.801265
 H        -3.389666         0.638909         0.513503
 H        -3.294976        -1.388159        -2.857654
 H        -1.881357        -0.867363        -3.319700
 H        -2.510894        -1.921391        -0.334967
 H         0.026062        -2.115235         0.024134
 H         0.032175        -1.269239        -1.621405
 H        -1.196154         1.911249         0.251106
 H         0.422487         1.608643        -0.766774
