19
Iteration:  3668charge 0 multiplicity 1
 C        -3.893134         0.787077        -1.135888
 C        -2.484392         0.334147        -1.513397
 C        -2.319524        -0.840658        -2.516523
 C        -2.099125        -1.175105        -1.121895
 C        -0.573874        -1.251475        -0.539236
 C        -0.421108        -0.180937         0.478052
 O         0.157270        -0.416720         1.495378
 C        -0.881814         1.261637         0.020576
 O        -1.256488         1.140071        -1.434848
 H        -4.503603        -0.023339        -0.669403
 H        -3.889282         1.527329        -0.402814
 H        -4.554182         1.122288        -2.011915
 H        -3.065971        -1.134011        -3.170325
 H        -1.374225        -0.775958        -3.067305
 H        -2.779347        -1.809161        -0.550437
 H        -0.359339        -2.268998        -0.148219
 H         0.153197        -1.124418        -1.400186
 H        -1.703655         1.717261         0.546510
 H        -0.074818         2.002438         0.010715
