19
Iteration:  1506
 C        -3.685199         0.752778        -0.812862
 C        -2.445656         0.133491        -1.230231
 C        -2.396112        -0.826092        -2.487526
 C        -1.909460        -1.259333        -1.110860
 C        -0.469447        -1.450671        -0.498376
 C        -0.354133        -0.072309         0.304443
 O        -0.452672        -0.013695         1.525444
 C        -0.436490         1.202619        -0.543240
 O        -1.531095         1.129162        -1.427988
 H        -3.920567         1.537726        -1.654322
 H        -4.614412         0.087354        -0.702079
 H        -3.576633         1.319279         0.138100
 H        -3.257705        -1.373892        -2.868202
 H        -1.748295        -0.464826        -3.303107
 H        -2.473911        -1.991860        -0.588197
 H        -0.469463        -2.267425         0.237175
 H         0.245532        -1.614646        -1.224175
 H        -0.512752         1.992546         0.162639
 H         0.582006         1.197281        -1.047500
