19
Iteration:  1349charge 0 multiplicity 1
 C        -3.960795         0.622397        -1.428471
 C        -2.471105         0.228739        -1.501414
 C        -2.221510        -0.884768        -2.470448
 C        -2.200788        -1.121778        -0.906547
 C        -0.907098        -1.349475        -0.204407
 C        -0.357947        -0.106403         0.484845
 O         0.508604        -0.293753         1.319006
 C        -0.739777         1.292079        -0.156127
 O        -1.468667         1.242337        -1.389636
 H        -4.163094         1.208683        -2.326462
 H        -4.606739        -0.247980        -1.183939
 H        -3.962594         1.329745        -0.513144
 H        -3.107797        -1.170993        -3.004025
 H        -1.222162        -0.866780        -2.928553
 H        -3.123489        -1.618968        -0.480320
 H        -0.791819        -2.089693         0.562028
 H        -0.081480        -1.456295        -0.918296
 H        -1.286029         1.841307         0.634595
 H         0.202097         1.754614        -0.360019
