19
Iteration:  3738
 C        -3.898470         0.913108        -1.439395
 C        -2.511512         0.236775        -1.518906
 C        -2.319266        -0.797607        -2.513399
 C        -2.135006        -1.111807        -1.102025
 C        -0.660671        -1.240535        -0.483806
 C        -0.361537        -0.161980         0.539334
 O         0.468390        -0.361329         1.384604
 C        -1.015296         1.131438         0.139099
 O        -1.367851         1.042188        -1.257776
 H        -4.675627         0.346906        -1.995897
 H        -4.246079         1.192468        -0.351787
 H        -3.796903         1.782161        -2.082212
 H        -3.232300        -1.220045        -3.023779
 H        -1.384959        -0.732927        -3.059153
 H        -2.804689        -1.832539        -0.591494
 H        -0.350094        -2.167126         0.004818
 H         0.134253        -1.163626        -1.235029
 H        -1.953016         1.259140         0.804121
 H        -0.286375         2.029949         0.219821
