19
Iteration:  2208charge 0 multiplicity 1
 C        -3.749399         0.646667        -0.808921
 C        -2.427382         0.173477        -1.411392
 C        -2.460129        -0.866825        -2.476781
 C        -2.031401        -1.147945        -0.947941
 C        -0.491633        -1.277776        -0.583067
 C        -0.323581        -0.047327         0.378892
 O        -0.395498        -0.053839         1.608320
 C        -0.541599         1.240290        -0.450120
 O        -1.271993         0.959303        -1.578986
 H        -4.393151         1.185685        -1.561227
 H        -4.267019        -0.306230        -0.693084
 H        -3.635119         1.094845         0.212112
 H        -3.354219        -1.156295        -2.941540
 H        -1.766931        -0.769526        -3.308224
 H        -2.724201        -1.845892        -0.400513
 H         0.050827        -2.167568        -0.271716
 H         0.039214        -0.861551        -1.442132
 H        -1.031249         1.791785         0.427810
 H         0.231230         1.928952        -0.735033
