19
Iteration:  1521charge 0 multiplicity 1
 C        -3.760177         0.817225        -0.760945
 C        -2.507090         0.032644        -1.395266
 C        -2.307750        -0.850096        -2.528359
 C        -1.944765        -1.351946        -1.148935
 C        -0.574188        -1.277445        -0.499527
 C        -0.463626        -0.069684         0.381717
 O        -0.305089        -0.007374         1.579683
 C        -0.397608         1.136524        -0.505557
 O        -1.501779         1.115920        -1.400844
 H        -4.198332         1.390016        -1.518763
 H        -4.457596         0.124847        -0.329413
 H        -3.247264         1.471032        -0.055055
 H        -3.236096        -1.203417        -2.997849
 H        -1.534617        -0.605688        -3.223666
 H        -2.748820        -2.060284        -0.783135
 H        -0.437883        -2.213579         0.098194
 H         0.341196        -1.230000        -1.211812
 H        -0.418117         2.151356         0.028598
 H         0.466112         1.222612        -1.216522
