19
Iteration:  3774charge 0 multiplicity 1
 C        -3.880001         0.725087        -1.316481
 C        -2.481780         0.367120        -1.525190
 C        -2.064287        -0.768703        -2.528767
 C        -2.195712        -1.178439        -1.151097
 C        -0.886232        -1.475160        -0.305208
 C        -0.405127        -0.214335         0.428246
 O         0.464285        -0.275955         1.300174
 C        -0.851231         1.136614         0.021785
 O        -1.462567         1.308782        -1.235600
 H        -4.593220         0.198703        -1.976903
 H        -4.237991         0.540528        -0.287290
 H        -3.944761         1.816488        -1.388836
 H        -2.774203        -1.157056        -3.251940
 H        -1.004855        -0.760923        -2.982219
 H        -3.142729        -1.609510        -0.858235
 H        -1.118265        -2.216528         0.455089
 H        -0.132425        -1.816764        -1.016051
 H        -1.560698         1.490821         0.935401
 H        -0.155151         1.916512         0.020157
