19
Iteration:   756charge 0 multiplicity 1
 C        -3.964357         0.733382        -1.472010
 C        -2.530091         0.100675        -1.417853
 C        -2.398360        -1.035874        -2.379423
 C        -1.980226        -1.243424        -0.976736
 C        -0.619812        -1.248995        -0.420165
 C        -0.190051        -0.037722         0.401299
 O         0.368325        -0.137966         1.467327
 C        -0.761085         1.261240        -0.148766
 O        -1.648877         1.208371        -1.309540
 H        -4.113806         1.061787        -2.519605
 H        -4.724217        -0.007623        -1.252983
 H        -4.033216         1.494599        -0.783485
 H        -3.350172        -1.466768        -2.685440
 H        -1.571930        -1.249560        -3.041185
 H        -2.729945        -1.750113        -0.384711
 H        -0.366232        -2.049943         0.240121
 H         0.223562        -1.167020        -1.211693
 H        -1.359565         1.729150         0.627505
 H         0.024013         1.960833        -0.378782
