19
Iteration:  3456charge 0 multiplicity 1
 C        -3.687914         0.878403        -0.995673
 C        -2.402717         0.213567        -1.542722
 C        -2.483404        -0.891580        -2.655811
 C        -2.077455        -1.245054        -1.188236
 C        -0.560241        -1.298355        -0.502067
 C        -0.470094        -0.108645         0.553426
 O         0.239061        -0.134332         1.540846
 C        -1.075495         1.083408        -0.039680
 O        -1.252206         1.091871        -1.464951
 H        -3.545526         1.913610        -0.830801
 H        -4.517233         0.605990        -1.729431
 H        -3.943110         0.513644        -0.044536
 H        -3.536269        -1.263050        -2.778351
 H        -2.026218        -0.986109        -3.707082
 H        -2.874052        -1.708383        -0.681755
 H        -0.261572        -2.284811        -0.120444
 H         0.256307        -0.952095        -1.232189
 H        -1.864548         1.557274         0.542558
 H        -0.200144         1.729883        -0.019403
