19
Iteration:  4458charge 0 multiplicity 1
 C        -3.752613         0.623316        -2.028798
 C        -2.459504         0.331171        -1.440521
 C        -1.555311        -0.684443        -2.213249
 C        -2.232743        -1.126948        -1.053905
 C        -1.411052        -1.330500         0.263341
 C        -0.322493        -0.248290         0.393118
 O         0.857047        -0.519492         0.482176
 C        -0.723171         1.223615        -0.063687
 O        -2.153513         1.385433        -0.498181
 H        -4.245302        -0.145882        -2.605011
 H        -4.440723         0.933421        -1.151451
 H        -3.847707         1.440162        -2.673618
 H        -1.786027        -0.832115        -3.268083
 H        -0.450961        -0.656419        -2.145107
 H        -3.121490        -1.796430        -1.210194
 H        -2.026696        -1.215406         1.170810
 H        -1.043334        -2.448964         0.452721
 H        -0.565803         2.074810         0.521491
 H        -0.067088         1.365721        -0.939901
