19
Iteration:  4863charge 0 multiplicity 1
 C        -3.994070         0.731485        -1.739121
 C        -2.582435         0.251045        -1.442813
 C        -1.614673        -0.530478        -2.405627
 C        -2.224423        -1.137132        -1.159157
 C        -1.424269        -1.370812         0.237506
 C        -0.311308        -0.306363         0.340676
 O         0.818221        -0.324482         0.932589
 C        -0.622892         1.034872        -0.282686
 O        -1.872055         1.261454        -0.730533
 H        -4.259488         0.273454        -2.717554
 H        -4.684195         0.444708        -0.929142
 H        -3.975143         1.771446        -1.967016
 H        -2.068999        -0.901392        -3.353206
 H        -0.661657        -0.020853        -2.474344
 H        -2.827187        -2.045329        -1.273370
 H        -2.062025        -1.231832         1.155886
 H        -0.864860        -2.283703         0.334152
 H        -0.467410         1.696949         0.556121
 H         0.204050         1.261915        -0.976797
