19
Iteration:  3218charge 0 multiplicity 1
 C        -3.875386         0.699308        -2.002228
 C        -2.555572         0.217478        -1.398506
 C        -1.540602        -0.630458        -2.247463
 C        -2.154847        -1.146396        -1.015594
 C        -1.357984        -1.396820         0.324315
 C        -0.334134        -0.198086         0.355056
 O         0.861909        -0.373545         0.474312
 C        -0.746441         1.213144        -0.072010
 O        -2.077737         1.258808        -0.619687
 H        -3.801898         1.563073        -2.644090
 H        -4.591930        -0.132921        -2.339871
 H        -4.347961         1.067117        -1.081578
 H        -1.857094        -1.060134        -3.186991
 H        -0.453903        -0.577258        -2.192139
 H        -2.927911        -1.823908        -0.985972
 H        -2.020391        -1.263872         1.219031
 H        -0.829648        -2.348613         0.395224
 H        -0.758137         1.835010         0.818267
 H         0.001629         1.508201        -0.836617
