19
Iteration:  1996charge 0 multiplicity 1
 C        -3.901516         0.836772        -1.711289
 C        -2.481968         0.241450        -1.484423
 C        -2.088871        -0.960759        -2.277346
 C        -2.363399        -1.185054        -0.831862
 C        -0.949505        -1.387664        -0.112359
 C        -0.195001        -0.124092         0.326548
 O         0.809870        -0.193579         1.034414
 C        -1.105242         1.159060         0.095052
 O        -1.476301         1.264879        -1.277112
 H        -3.980286         1.785379        -2.213206
 H        -4.603663         0.207831        -2.307591
 H        -4.396482         0.964313        -0.747532
 H        -2.640790        -1.356493        -3.117173
 H        -0.984534        -1.129262        -2.460028
 H        -3.277761        -1.607520        -0.390305
 H        -1.191242        -1.973942         0.813373
 H        -0.419722        -2.110790        -0.774356
 H        -1.977866         0.980517         0.793436
 H        -0.632919         2.180161         0.389577
