19
Iteration:  2211
 C        -3.755794         0.648672        -0.819566
 C        -2.438010         0.175103        -1.397786
 C        -2.449249        -0.840133        -2.476251
 C        -2.004363        -1.139591        -0.961130
 C        -0.458328        -1.251900        -0.572863
 C        -0.362164        -0.073835         0.378102
 O        -0.378313        -0.046919         1.612997
 C        -0.561700         1.218781        -0.449854
 O        -1.278683         0.941408        -1.586033
 H        -4.424129         1.198957        -1.521901
 H        -4.253053        -0.350737        -0.578289
 H        -3.604693         1.163422         0.195795
 H        -3.380680        -1.145480        -2.983045
 H        -1.723815        -0.764001        -3.240268
 H        -2.691132        -1.729245        -0.393518
 H        -0.060058        -2.254461        -0.269031
 H         0.003318        -0.943783        -1.481951
 H        -1.098905         1.865205         0.345715
 H         0.269376         1.831483        -0.749211
