19
Iteration:   809
 C        -3.961267         0.485435        -0.928714
 C        -2.516854         0.155082        -1.399222
 C        -2.093858        -0.821289        -2.453221
 C        -2.028540        -1.157957        -0.907135
 C        -0.660614        -1.344454        -0.445771
 C        -0.345362        -0.098779         0.339800
 O        -0.088725         0.039146         1.522629
 C        -0.455066         1.164196        -0.483029
 O        -1.591512         1.188376        -1.463021
 H        -4.341900         1.489653        -1.184299
 H        -4.547980        -0.278329        -1.444765
 H        -4.078135         0.278790         0.109947
 H        -2.815529        -1.140434        -3.148024
 H        -1.240683        -0.398991        -2.839555
 H        -2.865632        -1.809660        -0.724867
 H        -0.402526        -2.227449         0.117530
 H         0.029117        -1.440922        -1.406765
 H        -0.516719         2.070563         0.098598
 H         0.565881         1.270376        -1.034508
