19
Iteration:  4225charge 0 multiplicity 1
 C        -4.029799         0.639509        -1.815194
 C        -2.610727         0.242907        -1.398339
 C        -1.928281        -0.493809        -2.472320
 C        -2.152093        -1.141439        -1.017758
 C        -1.151150        -1.439947         0.057483
 C        -0.291337        -0.282230         0.493206
 O         0.730741        -0.391176         1.095565
 C        -0.609982         1.141356        -0.207561
 O        -1.791727         1.350765        -0.872627
 H        -4.223935         0.048429        -2.700819
 H        -4.793220         0.646807        -1.116718
 H        -3.863056         1.663515        -2.273441
 H        -2.475126        -1.071857        -3.182916
 H        -1.020760        -0.004523        -2.932217
 H        -2.923667        -1.948074        -1.138395
 H        -1.592619        -1.928520         0.941845
 H        -0.408541        -2.113844        -0.389901
 H        -0.539701         1.967815         0.553997
 H         0.278874         1.421329        -0.819417
