19
Iteration:   219
 C        -3.900868         0.568937        -1.266899
 C        -2.444613         0.086208        -1.374831
 C        -2.516947        -1.152649        -2.165035
 C        -2.084346        -1.178590        -0.719547
 C        -0.536628        -1.135146        -0.627107
 C        -0.239862         0.049246         0.315581
 O         0.089991        -0.021023         1.507209
 C        -0.730640         1.302377        -0.316233
 O        -1.350850         1.080987        -1.577540
 H        -4.576965        -0.061869        -1.858017
 H        -4.323310         0.625321        -0.241679
 H        -3.941403         1.626415        -1.769083
 H        -3.539301        -1.572478        -2.461219
 H        -1.664524        -1.385242        -2.789287
 H        -2.635229        -1.529732         0.076115
 H        -0.202872        -2.066748        -0.194036
 H        -0.030049        -0.937278        -1.568707
 H        -1.469001         1.866734         0.350768
 H         0.186789         2.023671        -0.407287
