19
Iteration:  3397
 C        -3.970130         0.663935        -1.367250
 C        -2.506245         0.259711        -1.501158
 C        -2.175442        -0.759221        -2.511089
 C        -2.156423        -1.119299        -0.964469
 C        -0.756362        -1.456828        -0.398188
 C        -0.332289        -0.195607         0.443520
 O         0.438839        -0.255043         1.377647
 C        -0.780432         1.176819        -0.039981
 O        -1.527066         1.300829        -1.331958
 H        -3.946151         1.801941        -1.291270
 H        -4.579677         0.548713        -2.254010
 H        -4.604992         0.242381        -0.505704
 H        -3.045519        -1.229386        -2.912624
 H        -1.244822        -0.513847        -2.985806
 H        -3.036928        -1.688673        -0.536280
 H        -0.883504        -2.304353         0.330367
 H         0.032939        -1.771787        -1.165653
 H        -1.173442         1.658098         0.911750
 H         0.208274         1.723688        -0.095796
