19
Iteration:   901
 C        -3.733303         0.638081        -0.688277
 C        -2.433819         0.163127        -1.374417
 C        -2.342918        -0.911236        -2.446894
 C        -1.926038        -1.151644        -0.939817
 C        -0.455895        -1.261794        -0.628988
 C        -0.450083        -0.013652         0.301729
 O        -0.477116        -0.144600         1.529809
 C        -0.572218         1.277686        -0.457666
 O        -1.341173         1.067681        -1.610565
 H        -4.368552         1.179688        -1.331209
 H        -4.152786        -0.288865        -0.358543
 H        -3.539088         1.198103         0.189085
 H        -3.266735        -1.478279        -2.864343
 H        -1.421959        -0.800028        -3.057265
 H        -2.428982        -1.828185        -0.250938
 H        -0.278164        -2.216239        -0.043324
 H         0.300267        -1.181137        -1.424444
 H        -1.022640         2.086185         0.169869
 H         0.400791         1.704941        -0.769497
