19
Iteration:  2694
 C        -3.924550         0.886493        -1.635815
 C        -2.525994         0.168834        -1.469572
 C        -2.156181        -0.982426        -2.385262
 C        -2.198962        -1.177824        -0.888032
 C        -0.858456        -1.329625        -0.260294
 C        -0.340096        -0.110484         0.567764
 O         0.799632        -0.162760         1.062297
 C        -1.091046         1.212520         0.134607
 O        -1.493273         1.088322        -1.249736
 H        -3.654522         1.857215        -2.101045
 H        -4.553512         0.546088        -2.424129
 H        -4.460878         0.997958        -0.676752
 H        -2.972929        -1.415386        -2.898206
 H        -1.263293        -0.936767        -2.897506
 H        -2.982839        -1.799825        -0.569866
 H        -0.735125        -2.327680         0.279182
 H        -0.213948        -1.293541        -1.134147
 H        -2.107414         1.350333         0.642766
 H        -0.612304         2.229200         0.184805
