19
Iteration:  2253charge 0 multiplicity 1
 C        -3.628785         0.801867        -0.893412
 C        -2.426732         0.068582        -1.492514
 C        -2.380908        -0.997647        -2.564801
 C        -1.986850        -1.293083        -1.075527
 C        -0.572547        -1.337646        -0.440473
 C        -0.319677        -0.055798         0.365547
 O        -0.186155        -0.123504         1.588349
 C        -0.683575         1.338028        -0.346429
 O        -1.537983         1.146517        -1.516289
 H        -4.239873         1.330561        -1.661486
 H        -4.366059         0.303399        -0.236115
 H        -3.066775         1.552755        -0.259321
 H        -3.313548        -1.472080        -2.853048
 H        -1.633297        -0.993359        -3.283415
 H        -2.588204        -1.763155        -0.306648
 H        -0.263243        -2.207153         0.150508
 H         0.266401        -1.253913        -1.119005
 H        -1.253458         1.950015         0.438041
 H         0.196222         1.919840        -0.494349
