19
Iteration:  4808
 C        -4.059764         0.597119        -1.726505
 C        -2.592736         0.312442        -1.511756
 C        -1.738978        -0.504672        -2.423826
 C        -2.228743        -1.079815        -1.124023
 C        -1.237572        -1.311131         0.003248
 C        -0.248431        -0.225201         0.324313
 O         0.614738        -0.445679         1.174732
 C        -0.412292         1.111920        -0.361937
 O        -1.877865         1.243724        -0.648363
 H        -4.613931        -0.331681        -1.954296
 H        -4.468626         1.027823        -0.744579
 H        -4.144158         1.410390        -2.413509
 H        -2.091809        -0.929409        -3.392895
 H        -0.728692        -0.317405        -2.514460
 H        -2.967292        -1.905636        -1.103301
 H        -1.777493        -1.378528         0.924636
 H        -0.646414        -2.169107        -0.193004
 H        -0.119053         1.912078         0.282621
 H         0.167543         1.134657        -1.284217
