19
Iteration:  3216charge 0 multiplicity 1
 C        -3.874226         0.697922        -2.002375
 C        -2.539719         0.221235        -1.389170
 C        -1.548797        -0.646391        -2.238767
 C        -2.150072        -1.165693        -1.004641
 C        -1.349741        -1.383189         0.317150
 C        -0.341735        -0.185505         0.355073
 O         0.857997        -0.386519         0.460121
 C        -0.741580         1.217791        -0.045120
 O        -2.084251         1.277687        -0.632722
 H        -3.737081         1.558886        -2.648244
 H        -4.554181        -0.089615        -2.386055
 H        -4.357230         0.998180        -1.076001
 H        -1.877050        -1.055509        -3.151455
 H        -0.449409        -0.569821        -2.219999
 H        -2.998155        -1.902338        -1.004559
 H        -1.993906        -1.298597         1.209132
 H        -0.850533        -2.308544         0.294060
 H        -0.858094         1.838550         0.829417
 H         0.026363         1.525620        -0.827712
