19
Iteration:  1302
 C        -3.927411         0.845589        -1.785815
 C        -2.587859         0.171366        -1.517317
 C        -2.020694        -0.843915        -2.374926
 C        -2.233762        -1.164840        -0.882378
 C        -1.053089        -1.437552         0.075199
 C        -0.205734        -0.243656         0.349154
 O         0.833644        -0.105291         1.006361
 C        -0.814685         1.122613        -0.040221
 O        -1.782097         1.272837        -1.088587
 H        -3.754873         1.543108        -2.619531
 H        -4.575852         0.022174        -2.065178
 H        -4.350917         1.309111        -0.904092
 H        -2.693914        -1.276825        -3.115941
 H        -0.971160        -0.804723        -2.523547
 H        -3.101666        -1.719882        -0.646173
 H        -1.460045        -1.859236         1.071865
 H        -0.439557        -2.239866        -0.468662
 H        -1.231352         1.252281         0.962272
 H         0.063804         1.736682        -0.099732
