19
Iteration:  4085charge 0 multiplicity 1
 C        -3.848230         0.740193        -1.672850
 C        -2.474692         0.225865        -1.396396
 C        -1.843654        -0.707206        -2.368768
 C        -2.341043        -1.173906        -1.053310
 C        -1.030714        -1.524167        -0.152722
 C        -0.328537        -0.208647         0.300893
 O         0.591562        -0.348216         1.102586
 C        -0.662484         1.242268        -0.127190
 O        -1.874597         1.386888        -0.891437
 H        -4.355720         0.042893        -2.364960
 H        -4.339723         0.747062        -0.623691
 H        -3.695456         1.816478        -2.042708
 H        -2.377409        -0.878329        -3.309843
 H        -0.762656        -0.806825        -2.381582
 H        -3.177113        -1.809390        -0.874970
 H        -1.415411        -1.997926         0.741582
 H        -0.359509        -2.195462        -0.778688
 H        -0.808378         1.807740         0.731003
 H         0.346587         1.556871        -0.657889
