19
Iteration:   989
 C        -3.844426         0.841850        -1.290448
 C        -2.491967         0.155602        -1.472662
 C        -2.393759        -0.978774        -2.424077
 C        -2.068300        -1.226073        -0.944007
 C        -0.653326        -1.331739        -0.433138
 C        -0.290233        -0.034741         0.439356
 O         0.286207        -0.195339         1.490396
 C        -0.876623         1.251332        -0.131151
 O        -1.405619         1.125958        -1.471290
 H        -3.896999         1.559257        -2.065975
 H        -4.696704         0.219719        -1.458812
 H        -4.035614         1.370521        -0.371927
 H        -3.288216        -1.406230        -2.927570
 H        -1.497088        -1.094782        -3.049661
 H        -2.793969        -1.737860        -0.337764
 H        -0.521877        -2.262202         0.192685
 H         0.022065        -1.356506        -1.278579
 H        -1.613523         1.696069         0.601472
 H        -0.156219         2.020559        -0.369862
