19
Iteration:  1476
 C        -3.870471         0.654683        -0.792988
 C        -2.397339         0.321094        -1.336589
 C        -2.371189        -0.933410        -2.280900
 C        -1.980597        -1.150485        -0.902277
 C        -0.426533        -1.376145        -0.581959
 C        -0.386575        -0.065941         0.245613
 O        -0.554207        -0.171265         1.466445
 C        -0.370058         1.231923        -0.510021
 O        -1.341195         1.179511        -1.588887
 H        -4.129738         1.670820        -0.946611
 H        -4.475679        -0.066849        -1.311158
 H        -3.695613         0.478831         0.251338
 H        -3.309713        -1.251985        -2.712133
 H        -1.672385        -1.107514        -3.066340
 H        -2.544540        -1.688875        -0.090208
 H        -0.258676        -2.331600         0.017882
 H         0.199361        -1.473759        -1.510564
 H        -0.688396         2.021502         0.250258
 H         0.692805         1.474951        -0.857538
