19
Iteration:  4561charge 0 multiplicity 1
 C        -3.844781         0.754082        -1.789614
 C        -2.514190         0.249171        -1.349045
 C        -1.729022        -0.669605        -2.370396
 C        -2.289080        -1.232190        -1.026440
 C        -1.199462        -1.473424        -0.040564
 C        -0.310405        -0.237894         0.334076
 O         0.734509        -0.369938         0.939874
 C        -0.659110         1.183534        -0.094213
 O        -1.946915         1.370824        -0.809006
 H        -4.421774         0.148418        -2.530116
 H        -4.504841         0.857437        -0.993912
 H        -3.893366         1.834613        -2.236147
 H        -2.182221        -0.839685        -3.321300
 H        -0.586224        -0.689389        -2.373896
 H        -3.157084        -1.829123        -0.913761
 H        -1.966318        -1.540276         0.760641
 H        -0.581847        -2.314467        -0.272580
 H        -0.691707         1.880102         0.754337
 H         0.118428         1.622236        -0.759202
