19
Iteration:  4725charge 0 multiplicity 1
 C        -3.957547         0.698682        -1.717175
 C        -2.556758         0.327215        -1.471811
 C        -1.927927        -0.692322        -2.507557
 C        -2.327138        -1.181462        -1.022830
 C        -1.099814        -1.393598        -0.200376
 C        -0.185060        -0.222629         0.356618
 O         0.596648        -0.427054         1.303370
 C        -0.481901         1.222362        -0.228305
 O        -1.825337         1.331247        -0.781785
 H        -4.332948        -0.043607        -2.469036
 H        -4.462502         0.669319        -0.821770
 H        -4.195366         1.670180        -2.312406
 H        -2.605693        -0.851377        -3.453409
 H        -0.887540        -0.647989        -2.818738
 H        -3.196320        -1.722180        -0.690622
 H        -1.421058        -1.907943         0.784468
 H        -0.387458        -2.301495        -0.484295
 H        -0.365746         1.922332         0.665367
 H         0.128103         1.678064        -1.062802
