19
Iteration:   344
 C        -3.893043         0.629793        -1.371691
 C        -2.509087         0.106809        -1.564709
 C        -1.977156        -1.062563        -2.430824
 C        -2.114769        -1.260294        -0.975721
 C        -1.068564        -1.234313         0.077981
 C        -0.334042         0.041719         0.395198
 O         0.779741        -0.070405         0.832313
 C        -1.155872         1.264387         0.096876
 O        -1.471489         1.211136        -1.336011
 H        -3.865198         1.587211        -0.769239
 H        -4.359806         0.863867        -2.343652
 H        -4.519235        -0.063739        -0.857322
 H        -2.747021        -1.550613        -3.045473
 H        -1.006259        -0.962084        -2.832081
 H        -2.969739        -1.939032        -0.600589
 H        -1.550355        -1.392688         1.071689
 H        -0.385605        -2.061735        -0.114450
 H        -2.109234         1.315266         0.696784
 H        -0.583805         2.163814         0.268706
