19
Iteration:  1512
 C        -3.685056         0.773842        -0.800418
 C        -2.467649         0.115792        -1.296152
 C        -2.343909        -0.843506        -2.532922
 C        -1.924734        -1.306492        -1.124060
 C        -0.521621        -1.383019        -0.530241
 C        -0.423228        -0.101267         0.331664
 O        -0.388543         0.001550         1.564821
 C        -0.407052         1.192971        -0.553401
 O        -1.544152         1.094557        -1.391739
 H        -4.021363         1.425993        -1.548916
 H        -4.563750         0.273681        -0.472645
 H        -3.544411         1.433819         0.062003
 H        -3.319358        -1.260464        -2.806022
 H        -1.628719        -0.424192        -3.270549
 H        -2.546135        -2.067675        -0.585296
 H        -0.499679        -2.136466         0.258959
 H         0.473655        -1.444191        -1.192914
 H        -0.510779         2.105841         0.126920
 H         0.518241         1.205718        -1.109753
