19
Iteration:   744
 C        -3.997172         0.737227        -1.472907
 C        -2.555098         0.164089        -1.436487
 C        -2.279098        -1.044715        -2.372902
 C        -2.111426        -1.215010        -0.846680
 C        -0.590878        -1.243036        -0.449097
 C        -0.261603        -0.069239         0.405386
 O         0.455997        -0.097131         1.403553
 C        -0.881129         1.237598        -0.054197
 O        -1.529747         1.141011        -1.378881
 H        -4.219091         1.057254        -2.500852
 H        -4.760387         0.041486        -1.163516
 H        -4.101864         1.622718        -0.934826
 H        -3.156982        -1.430906        -2.864913
 H        -1.456227        -0.924995        -3.002531
 H        -2.721104        -1.857279        -0.205897
 H        -0.403592        -2.207134         0.001388
 H        -0.023951        -1.294085        -1.448238
 H        -1.540262         1.481955         0.767609
 H        -0.131122         2.038942        -0.151013
