19
Iteration:  3438charge 0 multiplicity 1
 C        -3.730550         0.912472        -1.075335
 C        -2.520386         0.160924        -1.563104
 C        -2.353744        -0.882412        -2.588914
 C        -2.001527        -1.201740        -1.135359
 C        -0.665509        -1.287708        -0.520786
 C        -0.399435        -0.153262         0.470653
 O         0.283723        -0.193406         1.480390
 C        -0.999124         1.225733         0.009332
 O        -1.385761         1.013899        -1.405750
 H        -3.341424         1.947860        -0.887783
 H        -4.522986         0.878725        -1.796881
 H        -4.126102         0.529263        -0.098840
 H        -3.279970        -1.265712        -3.013144
 H        -1.416029        -0.756827        -3.213050
 H        -2.697296        -1.900355        -0.608879
 H        -0.607297        -2.159092         0.126957
 H         0.116756        -1.357800        -1.231076
 H        -1.933245         1.533027         0.508375
 H        -0.330994         2.157028         0.023070
