19
Iteration:  3996charge 0 multiplicity 1
 C        -3.839709         0.781761        -1.476698
 C        -2.499315         0.292939        -1.429772
 C        -1.885614        -0.757712        -2.524547
 C        -2.186948        -1.141744        -1.109043
 C        -1.119508        -1.403855        -0.096847
 C        -0.341812        -0.195963         0.354470
 O         0.693488        -0.325997         0.935641
 C        -1.100010         1.095887         0.213232
 O        -1.465214         1.290431        -1.140780
 H        -4.557441        -0.070463        -1.554650
 H        -4.171741         1.324890        -0.565033
 H        -4.105959         1.531837        -2.371693
 H        -2.649323        -1.117380        -3.219719
 H        -0.865102        -0.672863        -2.940662
 H        -3.187821        -1.754799        -1.035686
 H        -1.444850        -1.493084         0.958764
 H        -0.475619        -2.332820        -0.213245
 H        -1.990514         1.208246         0.785970
 H        -0.327068         1.921430         0.422090
