19
Iteration:  2960charge 0 multiplicity 1
 C        -3.830510         0.749352        -1.192029
 C        -2.491650         0.129127        -1.442452
 C        -2.290009        -0.943521        -2.486607
 C        -2.095529        -1.178673        -0.945319
 C        -0.694094        -1.275452        -0.465132
 C        -0.345542        -0.072642         0.392080
 O         0.111029        -0.146026         1.540363
 C        -0.708991         1.226168        -0.218470
 O        -1.410333         1.121989        -1.440408
 H        -4.076128         1.586585        -1.814676
 H        -4.597802        -0.046834        -1.243095
 H        -3.848000         1.067122        -0.141611
 H        -3.113965        -1.434681        -3.069968
 H        -1.497260        -0.870378        -3.215672
 H        -2.874931        -1.610450        -0.381815
 H        -0.453974        -2.197342        -0.045670
 H        -0.006662        -1.107209        -1.343962
 H        -1.312398         1.729195         0.531938
 H         0.224374         1.686351        -0.411725
