19
Iteration:  2969
 C        -3.922519         0.733394        -1.301384
 C        -2.524980         0.240628        -1.489176
 C        -2.266641        -0.956639        -2.411535
 C        -2.128157        -1.175268        -0.958401
 C        -0.639949        -1.277063        -0.410863
 C        -0.318674        -0.147908         0.408670
 O         0.190907        -0.196575         1.499621
 C        -0.739615         1.252764        -0.194154
 O        -1.438859         1.155417        -1.429850
 H        -4.261068         1.496289        -2.001344
 H        -4.551229        -0.192636        -1.319333
 H        -3.938625         1.254382        -0.347857
 H        -3.212395        -1.317753        -2.882682
 H        -1.339202        -0.827215        -2.927649
 H        -2.751061        -1.783883        -0.346261
 H        -0.503924        -2.176219         0.204938
 H         0.046836        -1.410043        -1.291064
 H        -1.096196         1.853413         0.634491
 H         0.238448         1.754170        -0.393325
