19
Iteration:  4880
 C        -4.021059         0.777145        -1.879926
 C        -2.595284         0.227926        -1.528028
 C        -1.679066        -0.553518        -2.311043
 C        -2.196951        -1.172592        -1.008847
 C        -1.305955        -1.401268         0.169890
 C        -0.280526        -0.247817         0.419520
 O         0.879826        -0.432561         0.864443
 C        -0.630124         1.103237        -0.139610
 O        -1.966701         1.314450        -0.803582
 H        -4.476507         0.343372        -2.761754
 H        -4.721715         0.543633        -1.016157
 H        -3.904531         1.918181        -1.869257
 H        -1.826921        -0.996792        -3.291890
 H        -0.605760        -0.404350        -2.280315
 H        -3.095019        -1.783046        -1.135216
 H        -1.946521        -1.281966         1.089920
 H        -0.864259        -2.414571        -0.027549
 H        -0.636673         1.831308         0.709075
 H         0.159653         1.363090        -0.884492
