19
Iteration:  4671
 C        -4.070732         0.721145        -1.498564
 C        -2.599399         0.240288        -1.519864
 C        -1.658694        -0.459496        -2.453897
 C        -2.217739        -1.158432        -1.219138
 C        -1.216457        -1.462920        -0.019891
 C        -0.294590        -0.230148         0.389004
 O         0.595092        -0.314537         1.254565
 C        -0.538017         0.998972        -0.446897
 O        -1.839617         1.297701        -0.789168
 H        -4.867363         0.078165        -1.953642
 H        -4.160810         1.003427        -0.495864
 H        -3.937958         1.702446        -2.088586
 H        -1.921593        -0.862717        -3.539321
 H        -0.582971        -0.327532        -2.388292
 H        -2.860157        -2.006468        -1.242359
 H        -1.790881        -1.732198         0.959478
 H        -0.483907        -2.357820        -0.028626
 H        -0.143458         1.899528         0.134477
 H        -0.017226         1.111842        -1.393044
