19
Iteration:  4775
 C        -3.874416         0.766971        -1.711356
 C        -2.602706         0.294249        -1.412061
 C        -1.877740        -0.542891        -2.433437
 C        -2.126425        -1.211458        -1.082564
 C        -1.087194        -1.622563        -0.044005
 C        -0.325018        -0.307825         0.432126
 O         0.633976        -0.260418         1.137780
 C        -0.602123         1.065233        -0.230708
 O        -1.927297         1.420810        -0.836545
 H        -4.658591         0.090552        -2.082879
 H        -4.231590         1.428422        -0.816706
 H        -3.675794         1.493228        -2.497067
 H        -2.506668        -0.886107        -3.238852
 H        -0.866555        -0.446762        -2.712155
 H        -3.030151        -1.847953        -1.185926
 H        -1.460398        -2.073306         0.836267
 H        -0.539519        -2.407559        -0.445573
 H        -0.215452         1.796921         0.418729
 H         0.001266         1.022938        -1.128602
