19
Iteration:  2679
 C        -3.903605         0.752196        -1.732480
 C        -2.560500         0.200134        -1.427356
 C        -2.183883        -0.889645        -2.393619
 C        -2.300578        -1.174689        -0.921954
 C        -0.913439        -1.285228        -0.175099
 C        -0.258678        -0.039878         0.416948
 O         0.790280        -0.198078         0.988173
 C        -1.079128         1.227551         0.238424
 O        -1.431413         1.093564        -1.180778
 H        -3.758505         1.736651        -2.230149
 H        -4.395842        -0.024078        -2.366105
 H        -4.603995         0.874589        -0.896826
 H        -2.868494        -1.272518        -3.191449
 H        -1.091584        -0.889645        -2.796529
 H        -3.131100        -1.742484        -0.395951
 H        -0.966824        -2.050782         0.568194
 H        -0.021660        -1.735017        -0.785983
 H        -1.908337         1.216423         0.933892
 H        -0.398349         2.106754         0.345474
