19
Iteration:  1842
 C        -3.743296         0.761280        -2.106031
 C        -2.475437         0.203243        -1.488531
 C        -1.907478        -1.027358        -2.309400
 C        -2.377084        -1.165614        -0.851120
 C        -1.234751        -1.253809         0.282756
 C        -0.148587        -0.108702         0.314930
 O         1.035868        -0.332805         0.415896
 C        -1.001113         1.261262         0.358815
 O        -1.860886         1.321220        -0.818181
 H        -3.612578         1.642046        -2.762741
 H        -4.407673         0.009241        -2.614235
 H        -4.505957         1.060591        -1.282746
 H        -2.556954        -1.480139        -3.040748
 H        -0.872927        -1.292089        -2.501967
 H        -3.347045        -1.744120        -0.728058
 H        -1.738251        -1.096817         1.206882
 H        -0.875962        -2.321886         0.293116
 H        -1.638413         1.221681         1.262783
 H        -0.388654         2.177879         0.338421
