19
Iteration:  1584
 C        -3.794099         0.823421        -1.162900
 C        -2.428229         0.191450        -1.422937
 C        -2.443090        -0.977442        -2.403646
 C        -2.045085        -1.252071        -0.970249
 C        -0.613457        -1.427661        -0.431602
 C        -0.302022        -0.052733         0.324901
 O         0.121072        -0.108595         1.464495
 C        -0.834605         1.281955        -0.182390
 O        -1.338951         1.136387        -1.519977
 H        -4.066101         1.512791        -2.046557
 H        -4.600406         0.034868        -1.049146
 H        -3.905861         1.483050        -0.252212
 H        -3.451669        -1.203856        -2.733405
 H        -1.682264        -0.947615        -3.155462
 H        -2.793343        -1.782073        -0.320474
 H        -0.690854        -2.289940         0.264864
 H         0.022380        -1.724897        -1.208379
 H        -1.576044         1.404168         0.555596
 H        -0.054295         2.058447        -0.023890
