19
Iteration:  3253
 C        -3.970748         0.571859        -1.944337
 C        -2.636702         0.208289        -1.377102
 C        -1.603949        -0.428307        -2.294200
 C        -2.129813        -1.146311        -1.074280
 C        -1.366874        -1.166518         0.202851
 C        -0.199193        -0.271993         0.254880
 O         0.876494        -0.456196         0.836226
 C        -0.640493         1.142333        -0.360870
 O        -2.066314         1.184990        -0.474316
 H        -3.976091         0.941736        -3.021059
 H        -4.735513        -0.275226        -1.940913
 H        -4.347741         1.363963        -1.248311
 H        -2.159825        -0.744272        -3.226081
 H        -0.524079        -0.357009        -2.286226
 H        -2.789498        -1.932907        -1.321488
 H        -2.191063        -0.753921         0.890840
 H        -1.072332        -2.200258         0.643050
 H        -0.276995         1.977104         0.291924
 H        -0.131823         1.429709        -1.274303
