19
Iteration:  3175
 C        -3.860877         0.572510        -2.099591
 C        -2.428307         0.274391        -1.416012
 C        -1.646933        -0.775905        -2.140389
 C        -2.354128        -1.098813        -0.825084
 C        -1.361591        -1.283107         0.230097
 C        -0.259914        -0.229997         0.231788
 O         0.989729        -0.343689         0.324019
 C        -0.903964         1.127337         0.284099
 O        -1.936031         1.399831        -0.761636
 H        -3.977529         1.633874        -2.303050
 H        -3.866577         0.019298        -3.125158
 H        -4.840515         0.437016        -1.626718
 H        -2.155780        -1.032840        -3.043111
 H        -0.553907        -0.850805        -2.252108
 H        -3.207474        -1.661295        -0.779556
 H        -1.833128        -1.287653         1.266741
 H        -0.802845        -2.258238         0.231815
 H        -1.442254         1.159923         1.263702
 H        -0.197550         1.941628         0.342474
