19
Iteration:  1973
 C        -3.886885         0.864093        -1.774483
 C        -2.504342         0.214755        -1.451211
 C        -2.023063        -0.818888        -2.331855
 C        -2.190731        -1.134440        -0.807064
 C        -0.998269        -1.493139         0.134320
 C        -0.357051        -0.204172         0.379008
 O         0.798917        -0.122311         0.792843
 C        -1.041696         1.091014         0.138005
 O        -1.557659         1.220853        -1.240795
 H        -3.638648         1.838564        -2.135057
 H        -4.458533         0.374530        -2.552995
 H        -4.528271         1.024236        -0.910270
 H        -2.657032        -1.514901        -2.846985
 H        -1.091149        -0.620990        -2.852484
 H        -3.097272        -1.780215        -0.702763
 H        -1.466303        -1.912105         1.058016
 H        -0.367224        -2.283867        -0.334710
 H        -1.933671         1.125185         0.853257
 H        -0.396425         1.978144         0.303172
