19
Iteration:  3256
 C        -4.007979         0.564805        -1.930632
 C        -2.616598         0.200999        -1.383135
 C        -1.630799        -0.432368        -2.327782
 C        -2.127628        -1.147019        -1.060579
 C        -1.334380        -1.168947         0.201595
 C        -0.194398        -0.262600         0.266235
 O         0.852737        -0.479562         0.856084
 C        -0.639079         1.174810        -0.380090
 O        -2.033500         1.189396        -0.457889
 H        -3.890154         0.842507        -3.025297
 H        -4.698597        -0.231051        -1.971475
 H        -4.436922         1.380130        -1.286925
 H        -2.115759        -0.734531        -3.247952
 H        -0.531259        -0.321198        -2.299972
 H        -2.872057        -1.975275        -1.381729
 H        -2.199920        -0.769642         0.762817
 H        -1.061584        -2.165791         0.648942
 H        -0.340891         2.032175         0.300533
 H        -0.164758         1.450306        -1.313297
