19
Iteration:  2936
 C        -3.650717         0.842883        -0.893655
 C        -2.478749         0.148831        -1.477583
 C        -2.403841        -0.946229        -2.478673
 C        -2.033063        -1.324779        -1.109027
 C        -0.553454        -1.282897        -0.547826
 C        -0.435374        -0.078099         0.454564
 O        -0.082319        -0.058685         1.620592
 C        -0.820308         1.292340        -0.269702
 O        -1.305994         1.017794        -1.596159
 H        -3.818051         1.883528        -1.149774
 H        -4.581871         0.250421        -1.118588
 H        -3.569564         0.666881         0.197687
 H        -3.305116        -1.274640        -3.026564
 H        -1.745358        -0.954805        -3.343514
 H        -2.736480        -1.893866        -0.488540
 H        -0.293663        -2.245147        -0.020033
 H         0.232307        -1.084419        -1.324785
 H        -1.498752         1.835120         0.360631
 H         0.209601         1.676007        -0.453301
