19
Iteration:  1620
 C        -3.835105         1.076413        -1.457288
 C        -2.654995         0.081703        -1.524402
 C        -2.352562        -1.139979        -2.399309
 C        -2.135213        -1.175136        -0.880029
 C        -0.707547        -1.159166        -0.455068
 C        -0.349559        -0.119142         0.556349
 O         0.561123        -0.158515         1.378005
 C        -0.990508         1.137005         0.019470
 O        -1.402959         0.964461        -1.409425
 H        -3.602981         1.944922        -2.038184
 H        -4.764912         0.694585        -1.849010
 H        -3.939942         1.360816        -0.377507
 H        -3.141817        -1.551445        -3.022256
 H        -1.409887        -0.994143        -2.990313
 H        -2.762353        -1.792064        -0.259319
 H        -0.131299        -2.040538        -0.296821
 H        -0.168041        -0.545872        -1.230164
 H        -1.854652         1.624533         0.465133
 H        -0.260226         1.997852        -0.046026
