19
Iteration:  3081
 C        -3.776959         0.815606        -1.601254
 C        -2.427805         0.226767        -1.589441
 C        -1.884536        -0.898482        -2.398787
 C        -2.238582        -1.212832        -0.952188
 C        -1.270037        -1.376120         0.218977
 C        -0.385707        -0.146962         0.440481
 O         0.837486        -0.007920         0.485965
 C        -1.238859         1.069680         0.356807
 O        -1.364556         1.144638        -1.158419
 H        -3.924400         1.753245        -2.141123
 H        -4.303702         0.009860        -2.068887
 H        -4.235513         1.040835        -0.628327
 H        -2.410192        -1.485590        -3.141717
 H        -0.833547        -0.726095        -2.738687
 H        -3.269845        -1.630680        -0.782641
 H        -1.890536        -1.443066         1.080094
 H        -0.748604        -2.361858         0.197355
 H        -2.240947         0.952812         0.822681
 H        -0.827784         2.008441         0.605297
