19
Iteration:    80
 C        -3.864451         0.753432        -0.963854
 C        -2.537060         0.057849        -1.304600
 C        -2.244915        -1.071664        -2.261769
 C        -1.895716        -1.393416        -0.844094
 C        -0.431483        -1.390537        -0.433555
 C        -0.247870        -0.005738         0.243055
 O        -0.322029         0.219543         1.413378
 C        -0.474515         1.202495        -0.604059
 O        -1.635352         1.155766        -1.449035
 H        -4.612778         0.079318        -0.677859
 H        -3.704408         1.453695        -0.157252
 H        -4.271307         1.394055        -1.823638
 H        -3.193950        -1.611564        -2.587865
 H        -1.455358        -0.946057        -3.083979
 H        -2.568021        -2.033933        -0.332780
 H        -0.124962        -2.305128         0.086623
 H         0.094552        -1.354129        -1.410926
 H        -0.680055         2.053049         0.052355
 H         0.345437         1.476884        -1.301087
