19
Iteration:  4694
 C        -3.978828         0.700912        -1.605532
 C        -2.530464         0.261002        -1.441800
 C        -1.803076        -0.517455        -2.452309
 C        -2.149281        -1.114991        -1.109252
 C        -1.149509        -1.492410        -0.040773
 C        -0.400160        -0.291363         0.445150
 O         0.577728        -0.316003         1.178375
 C        -0.537051         1.011807        -0.342605
 O        -1.826962         1.405894        -0.843699
 H        -4.368680        -0.086192        -2.291223
 H        -4.488121         0.660078        -0.637375
 H        -4.056698         1.677035        -2.130449
 H        -2.496063        -1.008903        -3.271370
 H        -0.885895        -0.050209        -2.844796
 H        -2.916357        -1.875953        -0.989596
 H        -1.574706        -1.965532         0.912649
 H        -0.448922        -2.284094        -0.452792
 H        -0.076057         1.818154         0.338144
 H         0.056761         1.025354        -1.240828
