19
Iteration:  1505charge 0 multiplicity 1
 C        -3.692972         0.752431        -0.813403
 C        -2.443761         0.128904        -1.225023
 C        -2.405566        -0.823975        -2.476392
 C        -1.905099        -1.253421        -1.107094
 C        -0.463985        -1.456681        -0.489183
 C        -0.344293        -0.069184         0.301307
 O        -0.461556        -0.016772         1.517850
 C        -0.438115         1.199770        -0.539083
 O        -1.524290         1.138808        -1.435757
 H        -3.907555         1.544714        -1.653920
 H        -4.600863         0.053681        -0.745230
 H        -3.571088         1.299912         0.149009
 H        -3.249791        -1.385962        -2.875705
 H        -1.745482        -0.470061        -3.315232
 H        -2.487349        -1.970290        -0.604407
 H        -0.462868        -2.280384         0.217104
 H         0.233308        -1.642350        -1.254272
 H        -0.511989         1.987573         0.163221
 H         0.558232         1.211883        -1.041240
