19
Iteration:   614charge 0 multiplicity 1
 C        -3.895239         0.390718        -1.732868
 C        -2.429895         0.207741        -1.497675
 C        -2.019062        -0.924532        -2.373016
 C        -2.276401        -1.152376        -0.882625
 C        -1.059217        -1.330261         0.138422
 C        -0.244590        -0.046753         0.266094
 O         0.861592        -0.189645         0.771910
 C        -0.870092         1.290680         0.148545
 O        -1.791252         1.415147        -1.073276
 H        -4.044970         1.360552        -2.299079
 H        -4.280869        -0.350393        -2.455090
 H        -4.483890         0.265476        -0.848040
 H        -2.678817        -1.315681        -3.058553
 H        -1.004679        -0.921620        -2.742603
 H        -3.246209        -1.636869        -0.625658
 H        -1.539658        -1.426215         1.078569
 H        -0.561425        -2.213777        -0.044098
 H        -1.486380         1.369400         1.081746
 H        -0.067660         2.083425         0.084825
