19
Iteration:  3560
 C        -3.975022         0.566759        -1.016477
 C        -2.416262         0.285295        -1.393376
 C        -2.330090        -0.789590        -2.573117
 C        -2.012905        -1.165588        -1.161900
 C        -0.614137        -1.327310        -0.585788
 C        -0.328386        -0.148439         0.380761
 O        -0.234324        -0.205356         1.629741
 C        -0.293106         1.092150        -0.341790
 O        -1.490578         1.341834        -1.238253
 H        -4.416686         0.395522        -2.011257
 H        -4.240316        -0.215041        -0.351722
 H        -4.238574         1.567763        -0.570623
 H        -3.197930        -1.316596        -2.885359
 H        -1.592244        -0.463607        -3.229197
 H        -2.662861        -1.910581        -0.681528
 H        -0.681487        -2.327393        -0.204220
 H         0.069801        -1.201232        -1.373540
 H        -0.344779         1.916251         0.450311
 H         0.707803         1.252154        -0.929674
