19
Iteration:  1205charge 0 multiplicity 1
 C        -3.710529         0.676807        -1.977845
 C        -2.304103         0.224642        -1.405259
 C        -1.518062        -0.874372        -2.085931
 C        -2.210395        -1.157987        -0.729981
 C        -1.336733        -1.281472         0.473825
 C        -0.462262        -0.157820         0.308798
 O         0.658347        -0.362394        -0.108300
 C        -1.180671         1.244451         0.385948
 O        -1.680367         1.342760        -0.939196
 H        -3.507588         1.441308        -2.781926
 H        -4.383773        -0.125249        -2.350741
 H        -4.331968         1.283167        -1.220777
 H        -1.952100        -1.397449        -2.950731
 H        -0.469529        -0.747465        -2.052234
 H        -2.961759        -1.910990        -0.808484
 H        -1.909277        -1.240217         1.340463
 H        -0.818005        -2.226692         0.336805
 H        -1.968439         1.150133         1.206147
 H        -0.480945         2.030570         0.540711
