19
Iteration:  4171
 C        -3.930760         0.638809        -1.536455
 C        -2.495828         0.279453        -1.481703
 C        -1.606086        -0.536616        -2.446441
 C        -2.162851        -1.171032        -1.188204
 C        -1.349673        -1.362546         0.039941
 C        -0.342994        -0.195032         0.253637
 O         0.489317        -0.277697         1.101695
 C        -0.478402         1.121117        -0.464952
 O        -1.896054         1.165593        -0.538987
 H        -4.562334        -0.159840        -1.874971
 H        -4.268117         1.066382        -0.611337
 H        -4.140668         1.409001        -2.321176
 H        -2.035106        -0.686096        -3.391371
 H        -0.496971        -0.399621        -2.550363
 H        -2.905201        -1.936854        -1.486591
 H        -1.917938        -1.551030         0.939825
 H        -0.683356        -2.227032        -0.098447
 H        -0.009406         1.987522        -0.089270
 H         0.098416         1.032031        -1.442162
