19
Iteration:     8charge 0 multiplicity 1
 C        -3.915021         0.673513        -1.167878
 C        -2.504375         0.127181        -1.489189
 C        -2.331293        -1.146027        -2.353820
 C        -2.086911        -1.146736        -0.879035
 C        -0.639778        -1.261488        -0.374421
 C        -0.296608        -0.041990         0.387983
 O         0.301964         0.032310         1.466033
 C        -0.792895         1.261372        -0.263519
 O        -1.473390         1.075323        -1.562361
 H        -4.001408         1.028166        -0.067547
 H        -4.233646         1.462413        -1.940413
 H        -4.708334        -0.064049        -1.261179
 H        -3.175919        -1.624680        -2.861823
 H        -1.496896        -1.045752        -3.009935
 H        -2.976323        -1.461897        -0.182521
 H        -0.301527        -2.159946         0.197343
 H         0.049750        -1.174117        -1.227913
 H        -1.447124         1.898733         0.359655
 H         0.022218         1.861677        -0.624557
