19
Iteration:  3063charge 0 multiplicity 1
 C        -3.852824         0.793999        -1.609084
 C        -2.414355         0.208004        -1.459128
 C        -1.933450        -0.865548        -2.454952
 C        -2.189939        -1.151315        -0.902048
 C        -1.140077        -1.393432         0.157801
 C        -0.353781        -0.129568         0.382555
 O         0.830122        -0.135857         0.683795
 C        -1.291155         1.136585         0.183459
 O        -1.422802         1.143620        -1.199268
 H        -3.761286         1.503843        -2.479139
 H        -4.650660         0.043622        -1.675865
 H        -3.845768         1.497901        -0.738406
 H        -2.693050        -1.135291        -3.216910
 H        -0.892250        -0.836129        -2.709878
 H        -3.135683        -1.790589        -0.866869
 H        -1.655354        -1.589483         1.181543
 H        -0.433503        -2.178541         0.022339
 H        -2.255996         1.100643         0.670663
 H        -0.879001         2.106186         0.621872
