19
Iteration:  2594charge 0 multiplicity 1
 C        -3.937999         0.528171        -1.686458
 C        -2.514528         0.197821        -1.477523
 C        -1.621397        -0.733099        -2.449752
 C        -2.246541        -1.213021        -1.051101
 C        -1.381163        -1.234065         0.276471
 C        -0.371808        -0.117760         0.433623
 O         0.860786        -0.301044         0.447759
 C        -0.949332         1.230783         0.299092
 O        -1.609669         1.267447        -0.996877
 H        -4.158791         1.078772        -2.633037
 H        -4.529104        -0.377650        -1.639641
 H        -4.200774         1.207974        -0.877169
 H        -2.208525        -1.114376        -3.252918
 H        -0.544377        -0.464040        -2.561875
 H        -3.048612        -1.977128        -0.920831
 H        -2.194183        -1.138948         1.005726
 H        -0.807350        -2.187122         0.316319
 H        -1.673344         1.563713         1.089857
 H        -0.178933         2.071288         0.271830
