19
Iteration:  2006charge 0 multiplicity 1
 C        -3.890089         0.790568        -1.675403
 C        -2.467163         0.209209        -1.597464
 C        -2.126013        -0.991104        -2.382614
 C        -2.359268        -1.084994        -0.819392
 C        -0.989930        -1.369503        -0.167723
 C        -0.210374        -0.071752         0.379415
 O         0.788886        -0.198054         1.071488
 C        -1.008485         1.205435         0.149995
 O        -1.524458         1.179752        -1.230085
 H        -3.792171         1.717294        -2.181427
 H        -4.592317         0.062663        -2.080110
 H        -4.152068         0.997834        -0.646340
 H        -2.875203        -1.409509        -3.043009
 H        -1.048785        -1.127717        -2.656314
 H        -3.282104        -1.559584        -0.427450
 H        -1.044739        -1.998349         0.820694
 H        -0.252385        -1.940756        -0.847634
 H        -1.910271         1.126475         0.820370
 H        -0.464991         2.205435         0.292669
