19
Iteration:  1801
 C        -3.760526         0.790332        -2.051928
 C        -2.577535         0.204393        -1.376810
 C        -1.828457        -0.836618        -2.127400
 C        -2.417569        -1.165085        -0.711074
 C        -1.214640        -1.459488         0.212035
 C        -0.245655        -0.182409         0.254818
 O         0.951848        -0.243910         0.517713
 C        -0.958362         1.201396         0.102713
 O        -1.812584         1.299498        -0.975656
 H        -3.444411         1.813200        -2.319639
 H        -3.847785         0.291906        -3.045215
 H        -4.589646         0.822568        -1.348197
 H        -2.294368        -1.292866        -2.998864
 H        -0.778808        -0.793769        -1.956346
 H        -3.226644        -1.922079        -0.600016
 H        -1.533675        -1.737069         1.293848
 H        -0.533290        -2.255269        -0.100927
 H        -1.490614         1.493401         1.013620
 H        -0.267875         2.093586        -0.086806
