19
Iteration:  4711charge 0 multiplicity 1
 C        -3.977250         0.640078        -1.712697
 C        -2.459936         0.304894        -1.407712
 C        -1.981864        -0.608437        -2.499199
 C        -2.195134        -1.105817        -1.092208
 C        -1.066005        -1.442788        -0.060007
 C        -0.267951        -0.251105         0.333011
 O         0.551800        -0.390099         1.235778
 C        -0.513481         1.114537        -0.258905
 O        -1.829783         1.406374        -0.789675
 H        -4.430398        -0.122080        -2.393729
 H        -4.715440         0.639052        -0.865079
 H        -3.992861         1.688424        -2.094526
 H        -2.655551        -0.853257        -3.260187
 H        -0.944910        -0.722045        -2.735193
 H        -3.119086        -1.702806        -1.046932
 H        -1.567217        -1.747190         0.834617
 H        -0.380374        -2.184045        -0.525624
 H        -0.411143         1.860361         0.472150
 H         0.384891         1.103462        -0.967394
