19
Iteration:  3750
 C        -3.863438         0.836055        -1.415329
 C        -2.522609         0.222157        -1.475666
 C        -2.230151        -0.753916        -2.665526
 C        -2.197120        -1.170108        -0.992633
 C        -0.773846        -1.267132        -0.426266
 C        -0.338319        -0.170288         0.505272
 O         0.531580        -0.362088         1.408382
 C        -1.005904         1.146319         0.096419
 O        -1.383876         1.135326        -1.281173
 H        -4.554463         0.200054        -2.002898
 H        -4.356870         0.883598        -0.345766
 H        -3.812990         1.860129        -1.726730
 H        -3.028701        -1.166969        -3.349406
 H        -1.219305        -0.685380        -3.171924
 H        -3.081448        -1.651046        -0.519172
 H        -0.713604        -2.235417         0.050418
 H        -0.153818        -1.205408        -1.303330
 H        -1.836920         1.560758         0.815584
 H        -0.233276         1.972741         0.172615
