19
Iteration:  4014
 C        -4.004607         0.695380        -1.591357
 C        -2.471763         0.277494        -1.531508
 C        -2.002240        -0.644780        -2.547635
 C        -2.163360        -1.128465        -1.119663
 C        -1.131428        -1.384646        -0.012233
 C        -0.303577        -0.206071         0.434153
 O         0.739244        -0.396771         0.982187
 C        -0.891180         1.238734         0.238465
 O        -1.516125         1.225059        -1.114894
 H        -4.695859        -0.149769        -1.644824
 H        -4.325673         1.300797        -0.785985
 H        -4.209567         1.346006        -2.425367
 H        -2.634321        -1.033162        -3.286818
 H        -0.925522        -0.360378        -2.771711
 H        -2.979569        -1.885666        -1.050227
 H        -1.809785        -1.737722         0.793690
 H        -0.419331        -2.119067        -0.249907
 H        -1.593206         1.260165         1.136513
 H        -0.157511         1.983688         0.122837
