19
Iteration:   869
 C        -3.659495         0.598314        -0.593797
 C        -2.458178         0.073284        -1.400920
 C        -2.369068        -0.819747        -2.668752
 C        -1.884195        -1.331010        -1.192295
 C        -0.532418        -1.325547        -0.502718
 C        -0.451040        -0.015172         0.418044
 O        -0.432350         0.115191         1.640852
 C        -0.432321         1.163219        -0.547344
 O        -1.506109         1.135131        -1.501553
 H        -4.130803         1.459672        -0.996777
 H        -4.442819        -0.152138        -0.554794
 H        -3.371041         0.806004         0.431496
 H        -3.300191        -1.206841        -3.218810
 H        -1.510361        -0.603147        -3.354673
 H        -2.437185        -2.158097        -0.757864
 H        -0.478532        -2.173454         0.214400
 H         0.336524        -1.255959        -1.077211
 H        -0.601063         2.065871         0.070736
 H         0.545129         1.133224        -0.969943
