19
Iteration:  3090charge 0 multiplicity 1
 C        -3.824405         0.821261        -1.657043
 C        -2.358161         0.248192        -1.526715
 C        -1.830141        -0.953378        -2.409220
 C        -2.264960        -1.200631        -0.952843
 C        -1.349572        -1.346615         0.215590
 C        -0.380429        -0.178868         0.479487
 O         0.815510         0.018899         0.386316
 C        -1.200650         1.081272         0.340580
 O        -1.398040         1.135863        -1.074205
 H        -3.778355         1.826902        -2.019656
 H        -4.459975         0.137631        -2.316369
 H        -4.038593         0.722513        -0.611962
 H        -2.466179        -1.455611        -3.104332
 H        -0.715153        -0.918417        -2.538119
 H        -3.101010        -1.831960        -0.958005
 H        -1.904077        -1.437136         1.122580
 H        -0.595460        -2.214662         0.133986
 H        -2.220504         1.128292         0.869051
 H        -0.694253         1.950464         0.690259
