19
Iteration:  2966charge 0 multiplicity 1
 C        -3.895522         0.731925        -1.275992
 C        -2.524896         0.206794        -1.469969
 C        -2.273873        -0.957344        -2.433598
 C        -2.121148        -1.174879        -0.962189
 C        -0.652925        -1.258088        -0.422409
 C        -0.326373        -0.137210         0.391946
 O         0.165731        -0.180646         1.514371
 C        -0.738794         1.248400        -0.211775
 O        -1.427641         1.142692        -1.430562
 H        -4.218282         1.600151        -1.907417
 H        -4.503352        -0.193882        -1.298331
 H        -3.870411         1.240204        -0.284406
 H        -3.149090        -1.340324        -2.927201
 H        -1.373080        -0.812050        -3.057325
 H        -2.817124        -1.752970        -0.271807
 H        -0.471042        -2.250454         0.153986
 H         0.010588        -1.324304        -1.288885
 H        -1.143066         1.826248         0.681823
 H         0.304518         1.729872        -0.369942
