19
Iteration:  1627
 C        -3.895831         1.059805        -1.512733
 C        -2.582009         0.132336        -1.510695
 C        -2.345357        -1.098791        -2.378993
 C        -2.174678        -1.216991        -0.922288
 C        -0.744075        -1.137837        -0.443130
 C        -0.324751        -0.140980         0.590363
 O         0.636999        -0.183049         1.352581
 C        -1.039953         1.211034         0.016017
 O        -1.386288         0.964009        -1.382016
 H        -3.440493         1.953740        -2.122311
 H        -4.844958         0.561227        -1.923760
 H        -4.159474         1.301958        -0.426545
 H        -3.117393        -1.695366        -2.827550
 H        -1.450614        -1.191361        -2.975500
 H        -2.880528        -1.812110        -0.259650
 H        -0.258266        -2.139715        -0.222715
 H        -0.164082        -0.660012        -1.198653
 H        -1.934833         1.475055         0.566930
 H        -0.287324         2.028297        -0.033820
