19
Iteration:  4256
 C        -4.008348         0.705636        -1.773748
 C        -2.483731         0.283421        -1.564930
 C        -1.788121        -0.751873        -2.382920
 C        -2.304214        -1.116865        -0.973059
 C        -1.152450        -1.426165        -0.096456
 C        -0.252816        -0.300970         0.324029
 O         0.752223        -0.373963         1.067632
 C        -0.735368         1.163240        -0.071669
 O        -1.830527         1.447650        -0.826279
 H        -4.381997        -0.032988        -2.449947
 H        -4.515721         0.631247        -0.858400
 H        -3.973225         1.748560        -2.188857
 H        -2.253042        -1.178546        -3.219149
 H        -0.688568        -0.613888        -2.431781
 H        -3.225939        -1.791803        -0.846485
 H        -1.408445        -1.684153         0.966656
 H        -0.540033        -2.202521        -0.474562
 H        -0.985375         1.739607         0.862911
 H         0.109707         1.564300        -0.586377
