19
Iteration:  4421
 C        -3.853159         0.750729        -2.208949
 C        -2.608813         0.236896        -1.416655
 C        -1.640248        -0.557509        -2.122668
 C        -2.260901        -1.220366        -0.971201
 C        -1.385498        -1.152466         0.338310
 C        -0.201179        -0.290426         0.181089
 O         0.933215        -0.500143         0.592158
 C        -0.705356         1.151211        -0.132618
 O        -2.108666         1.164073        -0.477184
 H        -4.013049         0.148008        -3.132199
 H        -4.692164         0.856607        -1.607484
 H        -3.418411         1.779166        -2.420780
 H        -1.806862        -0.903623        -3.168456
 H        -0.693424         0.044653        -1.917121
 H        -2.732438        -2.131436        -1.188631
 H        -2.072064        -0.545140         1.010073
 H        -1.043018        -2.110701         0.582046
 H        -0.695685         1.605655         0.929002
 H         0.013661         1.631455        -0.761818
