19
Iteration:  1971charge 0 multiplicity 1
 C        -3.874566         0.857557        -1.779643
 C        -2.513175         0.211520        -1.462110
 C        -2.016898        -0.814756        -2.353842
 C        -2.185457        -1.133612        -0.816986
 C        -1.013664        -1.490773         0.147418
 C        -0.355806        -0.205050         0.386775
 O         0.809667        -0.117594         0.779382
 C        -1.043725         1.110326         0.142565
 O        -1.565633         1.202825        -1.220718
 H        -3.692414         1.856777        -2.138580
 H        -4.462102         0.411282        -2.533475
 H        -4.477608         1.025886        -0.883968
 H        -2.683472        -1.515753        -2.859309
 H        -1.089918        -0.637156        -2.826848
 H        -3.103295        -1.761972        -0.719225
 H        -1.512711        -1.943618         1.110940
 H        -0.367969        -2.308663        -0.311907
 H        -1.878742         1.186984         0.921891
 H        -0.395440         1.935576         0.283259
