19
Iteration:  2034
 C        -3.929451         0.809303        -1.535456
 C        -2.486771         0.222691        -1.479489
 C        -2.265008        -0.944226        -2.494591
 C        -2.178086        -1.298246        -1.021486
 C        -0.921865        -1.408055        -0.197024
 C        -0.398446        -0.070348         0.568446
 O         0.690024        -0.147951         1.164564
 C        -0.906451         1.263251         0.053814
 O        -1.437315         1.182713        -1.298799
 H        -4.001041         1.458746        -2.455656
 H        -4.589150        -0.060114        -1.475140
 H        -4.086345         1.486337        -0.649015
 H        -3.208238        -1.328822        -2.900927
 H        -1.345540        -1.000197        -3.011562
 H        -3.049423        -1.852796        -0.629716
 H        -0.918250        -2.095849         0.639604
 H         0.036966        -1.667332        -0.611531
 H        -1.642726         1.816210         0.645089
 H        -0.011138         1.827651         0.025412
