19
Iteration:  4058
 C        -4.004478         0.766231        -1.702720
 C        -2.549878         0.262403        -1.446433
 C        -1.878629        -0.664649        -2.431405
 C        -2.222490        -1.123810        -1.046685
 C        -1.009909        -1.505321        -0.041264
 C        -0.240211        -0.257265         0.259625
 O         0.619553        -0.357397         1.115193
 C        -0.698518         1.115091        -0.048966
 O        -1.788026         1.411574        -0.965119
 H        -4.459051        -0.112587        -2.125030
 H        -4.346328         0.997805        -0.745858
 H        -3.952756         1.601008        -2.355882
 H        -2.480629        -1.196138        -3.152226
 H        -0.813589        -0.507659        -2.723601
 H        -3.077679        -1.848469        -0.925990
 H        -1.444391        -1.759116         0.937748
 H        -0.435073        -2.261826        -0.489890
 H        -1.085034         1.500771         0.981598
 H         0.222117         1.643672        -0.142046
