19
Iteration:  2315
 C        -3.854945         0.779942        -1.315396
 C        -2.534500         0.149305        -1.516467
 C        -2.399671        -1.029178        -2.495329
 C        -2.112561        -1.176760        -0.951715
 C        -0.699804        -1.237936        -0.443152
 C        -0.217347        -0.062987         0.486596
 O         0.357960        -0.154907         1.560864
 C        -0.847831         1.303406        -0.124724
 O        -1.437904         1.055440        -1.457649
 H        -3.896437         1.854743        -1.484481
 H        -4.540996         0.293047        -1.965107
 H        -4.169176         0.561507        -0.316883
 H        -3.340999        -1.489436        -2.823682
 H        -1.592346        -1.064854        -3.196966
 H        -2.963468        -1.673663        -0.403223
 H        -0.689105        -2.136831         0.171795
 H         0.131421        -1.219269        -1.212762
 H        -1.496868         1.820419         0.554002
 H         0.025603         1.964489        -0.483799
