19
Iteration:  1649
 C        -3.827904         0.876869        -1.618734
 C        -2.513908         0.184219        -1.489893
 C        -2.377847        -0.999611        -2.384330
 C        -2.215650        -1.139131        -0.855983
 C        -0.779284        -1.352848        -0.333432
 C        -0.253795        -0.054299         0.427944
 O         0.640291        -0.193470         1.243903
 C        -1.046775         1.205197         0.105962
 O        -1.401074         1.100993        -1.304734
 H        -3.698500         1.816985        -2.278954
 H        -4.546964         0.136747        -2.086825
 H        -4.312390         1.025586        -0.613280
 H        -3.252651        -1.143626        -2.957623
 H        -1.502374        -1.076588        -3.029225
 H        -2.988695        -1.721298        -0.276443
 H        -0.644445        -2.146073         0.445976
 H        -0.080331        -1.509539        -1.120935
 H        -1.958142         1.325009         0.661273
 H        -0.461256         2.156289         0.176017
