19
Iteration:  4176
 C        -3.915667         0.671768        -1.562905
 C        -2.502478         0.240412        -1.485858
 C        -1.594124        -0.586489        -2.451935
 C        -2.175365        -1.143711        -1.198544
 C        -1.367705        -1.412358         0.012787
 C        -0.302300        -0.173210         0.245870
 O         0.531221        -0.290549         1.146269
 C        -0.490690         1.103682        -0.446087
 O        -1.947487         1.198918        -0.554327
 H        -4.540457        -0.251308        -1.804975
 H        -4.064315         1.000756        -0.427826
 H        -4.206073         1.461644        -2.241412
 H        -2.076797        -0.671427        -3.480898
 H        -0.554352        -0.393971        -2.524262
 H        -3.032675        -1.740638        -1.521067
 H        -1.909526        -1.399582         1.000522
 H        -0.598509        -2.221988        -0.083447
 H        -0.017325         2.119965        -0.143645
 H         0.012957         1.188526        -1.418215
