19
Iteration:   559charge 0 multiplicity 1
 C        -4.004929         0.680825        -2.034935
 C        -2.637426         0.085872        -1.429882
 C        -1.551922        -0.645212        -2.097370
 C        -2.151337        -1.224964        -0.839680
 C        -1.157131        -1.317141         0.378960
 C        -0.226244        -0.102380         0.256891
 O         0.940171        -0.319616         0.511114
 C        -0.846685         1.244016        -0.166536
 O        -2.188555         1.228148        -0.741572
 H        -3.778060         1.038109        -3.081687
 H        -4.752386        -0.114093        -2.004701
 H        -4.138676         1.579086        -1.412338
 H        -1.785703        -1.125537        -3.003139
 H        -0.504720        -0.348924        -1.995989
 H        -2.761164        -2.174335        -0.858628
 H        -1.696626        -1.385216         1.331706
 H        -0.581064        -2.207002         0.202833
 H        -0.859947         1.885755         0.748627
 H        -0.084509         1.692242        -0.887014
