19
Iteration:  4410charge 0 multiplicity 1
 C        -3.851561         0.821192        -2.160195
 C        -2.674950         0.187849        -1.439916
 C        -1.533750        -0.533374        -2.134551
 C        -2.233345        -1.259512        -0.949851
 C        -1.437943        -1.250718         0.305400
 C        -0.180001        -0.277091         0.251578
 O         0.988561        -0.484929         0.584673
 C        -0.756606         1.123232        -0.150864
 O        -2.120254         1.235295        -0.499857
 H        -4.071497         0.279579        -3.108999
 H        -4.759010         0.868915        -1.650422
 H        -3.644846         1.855562        -2.536404
 H        -1.801087        -0.887107        -3.165944
 H        -0.432326        -0.329562        -2.105408
 H        -2.899848        -2.079385        -1.072501
 H        -2.026097        -0.714707         1.134280
 H        -1.251069        -2.144066         0.815428
 H        -0.598721         1.785099         0.765460
 H        -0.208614         1.637249        -0.919150
