19
Iteration:   331charge 0 multiplicity 1
 C        -3.860327         0.578182        -1.248176
 C        -2.407269         0.115726        -1.644946
 C        -2.087442        -1.076345        -2.543441
 C        -2.189463        -1.250576        -1.017514
 C        -1.071230        -1.234703         0.074413
 C        -0.323815         0.067335         0.465168
 O         0.811196        -0.043424         0.924602
 C        -1.206157         1.376356         0.072363
 O        -1.396709         1.119471        -1.386079
 H        -3.748410         1.234286        -0.354068
 H        -4.492270         1.148758        -1.978961
 H        -4.430358        -0.280932        -0.863762
 H        -2.880445        -1.437664        -3.197532
 H        -1.105959        -1.075059        -3.129497
 H        -3.200019        -1.778448        -0.775800
 H        -1.612229        -1.629360         0.996564
 H        -0.228352        -1.855066         0.056396
 H        -2.203270         1.245464         0.648249
 H        -0.771000         2.337389         0.227690
