19
Iteration:   287
 C        -3.960004         0.799687        -1.252856
 C        -2.577496         0.088131        -1.432499
 C        -2.162017        -0.964595        -2.432244
 C        -2.042699        -1.349690        -0.959386
 C        -0.804859        -1.458977        -0.075346
 C        -0.322081         0.010150         0.386158
 O         0.549198         0.167815         1.210703
 C        -0.967160         1.242510        -0.218176
 O        -1.488701         1.045595        -1.477374
 H        -4.409180         0.593464        -0.275102
 H        -3.739272         1.885562        -1.354964
 H        -4.655479         0.489504        -2.074287
 H        -2.877586        -1.496482        -3.086093
 H        -1.154076        -0.859432        -2.998426
 H        -2.924022        -1.980126        -0.576591
 H        -0.940718        -2.012746         0.904981
 H        -0.075038        -2.006213        -0.620268
 H        -1.746215         1.562078         0.577130
 H        -0.218425         2.040948        -0.264684
