19
Iteration:  4864charge 0 multiplicity 1
 C        -4.000059         0.726973        -1.741267
 C        -2.586615         0.254877        -1.442048
 C        -1.616050        -0.535286        -2.404523
 C        -2.233188        -1.132280        -1.153067
 C        -1.418704        -1.370547         0.235515
 C        -0.307019        -0.314517         0.347799
 O         0.824364        -0.324197         0.927281
 C        -0.618680         1.038684        -0.276206
 O        -1.876349         1.258437        -0.739828
 H        -4.275468         0.303936        -2.744782
 H        -4.680708         0.467024        -0.953182
 H        -3.970076         1.837894        -1.988750
 H        -2.067565        -0.899898        -3.345853
 H        -0.613613        -0.012783        -2.422710
 H        -2.799154        -2.057711        -1.266373
 H        -2.071718        -1.291150         1.117849
 H        -0.859193        -2.292707         0.364239
 H        -0.491608         1.728478         0.567397
 H         0.207262         1.281814        -0.948946
