19
Iteration:  4987
 C        -3.927517         0.676940        -1.995907
 C        -2.488288         0.208578        -1.425968
 C        -1.485472        -0.498049        -2.198102
 C        -2.130860        -1.184995        -1.058551
 C        -1.534916        -1.236468         0.322021
 C        -0.281077        -0.182960         0.347510
 O         0.849429        -0.559247         0.477323
 C        -0.727437         1.161576        -0.085490
 O        -2.054014         1.241077        -0.551417
 H        -4.698472        -0.068235        -2.012141
 H        -4.190963         1.523983        -1.385605
 H        -3.677937         0.980526        -3.114178
 H        -1.794664        -0.847989        -3.248699
 H        -0.428671        -0.106681        -2.097132
 H        -2.854873        -1.906958        -1.428724
 H        -2.249338        -0.926472         1.096499
 H        -1.192618        -2.246531         0.678347
 H        -0.536793         1.825446         0.803159
 H        -0.015045         1.547038        -0.804253
