19
Iteration:  4211charge 0 multiplicity 1
 C        -4.019294         0.704410        -1.758268
 C        -2.599516         0.222886        -1.414473
 C        -1.814930        -0.548362        -2.478189
 C        -2.130745        -1.151733        -1.114926
 C        -1.157752        -1.397900         0.032277
 C        -0.263510        -0.189635         0.358163
 O         0.656281        -0.376470         1.154353
 C        -0.523994         1.086842        -0.241871
 O        -1.889266         1.292104        -0.803308
 H        -4.555326        -0.068961        -2.316481
 H        -4.571823         0.743280        -0.816362
 H        -4.047613         1.753621        -2.201970
 H        -2.429991        -0.931653        -3.275325
 H        -0.861242        -0.056388        -2.769603
 H        -2.969681        -1.950717        -1.146667
 H        -1.744611        -1.568587         1.004654
 H        -0.486403        -2.239272        -0.055020
 H        -0.470365         1.847734         0.622044
 H         0.164096         1.132877        -1.076653
