19
Iteration:  2127charge 0 multiplicity 1
 C        -3.806822         0.815524        -0.981065
 C        -2.470251         0.168181        -1.405485
 C        -2.442838        -0.941727        -2.488663
 C        -2.039788        -1.238162        -1.029495
 C        -0.541394        -1.232011        -0.512007
 C        -0.373173        -0.010519         0.344627
 O        -0.099779        -0.102789         1.552870
 C        -0.732245         1.267101        -0.251520
 O        -1.239188         0.923207        -1.524253
 H        -4.014784         1.723574        -1.477983
 H        -4.554680         0.036140        -1.163578
 H        -3.846479         0.974502         0.063610
 H        -3.469300        -1.391831        -2.625638
 H        -1.685734        -0.926836        -3.259720
 H        -2.783359        -1.764566        -0.478904
 H        -0.139257        -2.135011         0.006326
 H         0.021917        -1.136449        -1.484640
 H        -1.276742         1.752693         0.516746
 H         0.227663         1.827111        -0.509097
