19
Iteration:  2452charge 0 multiplicity 1
 C        -3.994958         0.746615        -1.642519
 C        -2.513966         0.204437        -1.534095
 C        -1.682934        -0.759494        -2.287319
 C        -2.273402        -1.105604        -0.890903
 C        -1.165583        -1.493931         0.209472
 C        -0.338286        -0.252887         0.368473
 O         0.835272        -0.152968         0.561639
 C        -1.161241         1.198183         0.214988
 O        -1.517892         1.226130        -1.185108
 H        -4.114729         1.177314        -2.671774
 H        -4.684275        -0.145738        -1.520497
 H        -4.312931         1.518825        -0.910141
 H        -2.082857        -1.365406        -3.178337
 H        -0.605998        -0.580661        -2.246535
 H        -3.195549        -1.720004        -0.903546
 H        -1.609957        -1.680923         1.246337
 H        -0.420947        -2.249556        -0.209698
 H        -1.933526         1.549230         0.913266
 H        -0.352868         1.912712         0.342342
