19
Iteration:  1797charge 0 multiplicity 1
 C        -3.783327         0.788531        -2.009378
 C        -2.553929         0.213834        -1.378134
 C        -1.791274        -0.822663        -2.071725
 C        -2.416622        -1.197850        -0.716719
 C        -1.208754        -1.432741         0.196237
 C        -0.263892        -0.173935         0.257554
 O         0.937514        -0.277814         0.530996
 C        -0.951011         1.210806         0.081972
 O        -1.796175         1.307331        -1.017468
 H        -3.480434         1.814693        -2.284274
 H        -4.096419         0.246443        -2.978297
 H        -4.778752         0.755549        -1.368635
 H        -2.099392        -1.084321        -3.089764
 H        -0.697592        -0.871208        -1.891056
 H        -3.288087        -1.885203        -0.605539
 H        -1.537955        -1.663271         1.174590
 H        -0.533696        -2.288960        -0.165610
 H        -1.560505         1.447129         0.959788
 H        -0.371608         2.057877        -0.131501
