19
Iteration:  2677charge 0 multiplicity 1
 C        -3.904453         0.746889        -1.732235
 C        -2.554345         0.200331        -1.439442
 C        -2.177655        -0.878797        -2.394993
 C        -2.319391        -1.179859        -0.913936
 C        -0.908192        -1.284890        -0.165673
 C        -0.258489        -0.024351         0.389212
 O         0.795003        -0.199386         0.986493
 C        -1.070315         1.207780         0.250400
 O        -1.428305         1.107543        -1.166008
 H        -3.795482         1.677125        -2.303444
 H        -4.385294        -0.051561        -2.376777
 H        -4.601274         0.837625        -0.889798
 H        -2.865189        -1.238182        -3.201889
 H        -1.107146        -0.881628        -2.814214
 H        -3.126723        -1.777735        -0.398874
 H        -1.034781        -2.028811         0.626990
 H        -0.075345        -1.783687        -0.738936
 H        -1.961458         1.266801         0.900735
 H        -0.399371         2.038597         0.310400
