19
Iteration:  1964
 C        -3.837358         0.853869        -1.769945
 C        -2.561622         0.205361        -1.510242
 C        -1.991710        -0.849609        -2.431603
 C        -2.185240        -1.148237        -0.888883
 C        -1.127718        -1.485738         0.185706
 C        -0.302517        -0.183223         0.439742
 O         0.861170        -0.107419         0.726516
 C        -1.084777         1.169368         0.162358
 O        -1.581790         1.146528        -1.120567
 H        -3.757097         1.882218        -2.161273
 H        -4.525096         0.328247        -2.496920
 H        -4.334820         0.966236        -0.790237
 H        -2.741163        -1.341974        -3.046760
 H        -0.924283        -0.729005        -2.754326
 H        -3.095612        -1.739684        -0.732639
 H        -1.516235        -1.847612         1.087730
 H        -0.405428        -2.230403        -0.122575
 H        -1.683188         1.466195         1.051251
 H        -0.197356         1.910506         0.176026
