19
Iteration:  3475charge 0 multiplicity 1
 C        -3.681235         0.761175        -1.003533
 C        -2.395218         0.226340        -1.508783
 C        -2.508910        -0.836323        -2.523822
 C        -2.007268        -1.209864        -1.133005
 C        -0.634861        -1.293461        -0.588927
 C        -0.409264        -0.158373         0.461694
 O         0.063831        -0.161996         1.574260
 C        -0.907571         1.228607        -0.096504
 O        -1.246726         1.064189        -1.511370
 H        -3.734030         1.861709        -1.125396
 H        -4.666097         0.455198        -1.462089
 H        -3.781162         0.540151         0.099475
 H        -3.434785        -1.179415        -2.941462
 H        -1.778435        -0.827226        -3.253403
 H        -2.703827        -1.772853        -0.525190
 H        -0.434355        -2.378178        -0.401034
 H         0.198525        -0.942492        -1.293775
 H        -1.810879         1.247047         0.574779
 H        -0.210885         1.971485         0.196646
