19
Iteration:  4865charge 0 multiplicity 1
 C        -4.004856         0.723317        -1.745200
 C        -2.590628         0.258691        -1.442347
 C        -1.617797        -0.539112        -2.403466
 C        -2.239953        -1.128915        -1.144952
 C        -1.412365        -1.369385         0.232810
 C        -0.301219        -0.321446         0.355775
 O         0.828676        -0.324708         0.921387
 C        -0.613684         1.042010        -0.268847
 O        -1.881898         1.255973        -0.748994
 H        -4.293510         0.332365        -2.762884
 H        -4.683346         0.488725        -0.972611
 H        -3.966265         1.893430        -2.002987
 H        -2.061104        -0.896705        -3.335674
 H        -0.575573        -0.015238        -2.374389
 H        -2.779243        -2.065309        -1.263725
 H        -2.083090        -1.346992         1.079355
 H        -0.855779        -2.309101         0.389609
 H        -0.514422         1.761355         0.579504
 H         0.212341         1.302297        -0.927596
