19
Iteration:   499charge 0 multiplicity 1
 C        -3.983034         0.263255        -2.004006
 C        -2.572554         0.207753        -1.450707
 C        -1.444652        -0.523227        -2.190302
 C        -2.057479        -1.141700        -0.943743
 C        -1.443140        -1.020518         0.387779
 C        -0.234207        -0.106349         0.263712
 O         0.905018        -0.537644         0.369635
 C        -0.742351         1.293433        -0.141184
 O        -2.169224         1.237577        -0.498154
 H        -4.041722         0.464141        -3.062878
 H        -4.615920        -0.594848        -1.810955
 H        -4.497654         1.041558        -1.458736
 H        -1.641436        -0.907333        -3.183111
 H        -0.419853        -0.148141        -2.046749
 H        -2.633310        -2.019879        -0.971308
 H        -2.097080        -0.569655         1.091955
 H        -1.023899        -1.931987         0.878023
 H        -0.681700         2.010637         0.690395
 H        -0.209960         1.808317        -0.966539
