19
Iteration:    69charge 0 multiplicity 1
 C        -3.925108         0.689755        -1.112087
 C        -2.509177         0.085367        -1.280967
 C        -2.290473        -1.078636        -2.186672
 C        -1.952394        -1.348697        -0.800778
 C        -0.446452        -1.300129        -0.526505
 C        -0.230379        -0.018965         0.205230
 O        -0.262341         0.139797         1.454781
 C        -0.441542         1.262836        -0.589071
 O        -1.625189         1.142899        -1.393575
 H        -4.557567         0.133748        -0.495377
 H        -3.702831         1.606326        -0.624585
 H        -4.431419         0.939084        -2.126053
 H        -3.287515        -1.507303        -2.497595
 H        -1.554803        -1.068826        -3.060139
 H        -2.474320        -2.094213        -0.288149
 H        -0.200114        -2.056290         0.224008
 H         0.195459        -1.447168        -1.419351
 H        -0.497488         1.996964         0.222616
 H         0.416791         1.516304        -1.255878
