19
Iteration:  2172charge 0 multiplicity 1
 C        -3.658526         0.790229        -0.876701
 C        -2.399708         0.173241        -1.434253
 C        -2.421396        -1.060304        -2.401542
 C        -1.909812        -1.197454        -0.897883
 C        -0.432202        -1.286680        -0.554640
 C        -0.524447        -0.049414         0.311756
 O        -0.324462        -0.191090         1.485502
 C        -0.638565         1.258644        -0.395948
 O        -1.436102         1.154832        -1.539350
 H        -3.655460         1.786500        -1.264905
 H        -4.533043         0.258642        -1.220724
 H        -3.798251         0.946219         0.155172
 H        -3.473568        -1.451436        -2.494104
 H        -1.593574        -1.026635        -3.138821
 H        -2.556876        -1.769408        -0.230086
 H        -0.086534        -2.083621         0.121702
 H         0.390595        -1.061032        -1.353169
 H        -0.994025         2.070630         0.223453
 H         0.445275         1.399110        -0.788881
