19
Iteration:   261charge 0 multiplicity 1
 C        -3.954145         0.732022        -1.376009
 C        -2.609277         0.084332        -1.458903
 C        -2.262659        -1.159011        -2.336138
 C        -2.093643        -1.185372        -0.803174
 C        -0.644769        -1.215854        -0.310276
 C        -0.238610         0.024413         0.402740
 O         0.468041        -0.033688         1.441414
 C        -0.810402         1.223567        -0.272721
 O        -1.628752         1.134980        -1.498724
 H        -4.644282         0.134182        -0.746035
 H        -3.771960         1.714457        -0.932137
 H        -4.415101         0.855813        -2.393326
 H        -3.036647        -1.743697        -2.877371
 H        -1.410534        -1.089256        -2.970392
 H        -2.742399        -1.755624        -0.240653
 H        -0.409038        -1.988401         0.407193
 H        -0.075755        -1.488409        -1.236230
 H        -1.376335         1.768463         0.543974
 H        -0.001688         1.957644        -0.619264
