19
Iteration:   600
 C        -3.874993         0.476423        -1.880637
 C        -2.479461         0.186238        -1.399610
 C        -1.910331        -0.894298        -2.347570
 C        -2.246609        -1.174086        -0.814531
 C        -1.162906        -1.349511         0.124478
 C        -0.219962        -0.155249         0.250971
 O         0.903980        -0.097578         0.703582
 C        -0.897125         1.238315         0.021528
 O        -1.863613         1.371509        -0.902816
 H        -3.965056         1.344568        -2.473097
 H        -4.306996        -0.377962        -2.362698
 H        -4.554162         0.766410        -1.045622
 H        -2.690128        -1.091309        -3.104146
 H        -0.843618        -1.062847        -2.643574
 H        -3.174655        -1.756567        -0.553462
 H        -1.545846        -1.373181         1.125223
 H        -0.474646        -2.281607         0.124306
 H        -1.296082         1.551219         1.002236
 H        -0.104658         2.006476        -0.180761
