19
Iteration:   188
 C        -3.769341         0.892992        -0.907869
 C        -2.546694         0.010686        -1.432761
 C        -2.355328        -1.216591        -2.276115
 C        -1.907527        -1.264298        -0.887774
 C        -0.389883        -1.212279        -0.490883
 C        -0.360251         0.035647         0.348361
 O        -0.051444         0.028791         1.532490
 C        -0.886675         1.265753        -0.438653
 O        -1.497881         1.031225        -1.715482
 H        -4.642993         0.791446        -1.512666
 H        -3.939173         0.772418         0.152286
 H        -3.363444         1.951579        -0.962309
 H        -3.086170        -2.037986        -2.632499
 H        -1.585146        -1.117038        -3.053551
 H        -2.473493        -1.820522        -0.185802
 H        -0.228425        -2.024014         0.235909
 H         0.333357        -1.378781        -1.261294
 H        -1.458020         2.003979         0.089643
 H        -0.011886         1.786184        -0.758630
