19
Iteration:  3638charge 0 multiplicity 1
 C        -3.808866         0.631627        -1.057729
 C        -2.479102         0.269155        -1.458631
 C        -2.296109        -0.644949        -2.626084
 C        -2.089858        -1.174131        -1.255072
 C        -0.660612        -1.318501        -0.440496
 C        -0.357494        -0.174425         0.437035
 O         0.047470        -0.273466         1.622096
 C        -0.655767         1.157836        -0.145051
 O        -1.451979         1.173259        -1.372183
 H        -4.448218        -0.270324        -0.984556
 H        -3.840744         1.156258        -0.061507
 H        -4.188972         1.425745        -1.751554
 H        -3.153569        -1.037577        -3.060822
 H        -1.491908        -0.402864        -3.308405
 H        -2.737350        -1.927845        -0.907920
 H        -0.607159        -2.280989         0.045560
 H         0.056864        -1.475741        -1.228964
 H        -1.109716         1.925288         0.608947
 H         0.340876         1.561847        -0.625976
