19
Iteration:  1248charge 0 multiplicity 1
 C        -3.876618         0.575370        -1.865054
 C        -2.467210         0.229740        -1.457311
 C        -1.659050        -0.793568        -2.202695
 C        -2.271588        -1.079762        -0.848933
 C        -1.399625        -1.266875         0.376134
 C        -0.310918        -0.182727         0.354044
 O         0.905847        -0.346240         0.281748
 C        -1.090112         1.211185         0.278835
 O        -1.593143         1.320890        -1.069486
 H        -3.956593         1.574063        -2.352670
 H        -4.165298        -0.294084        -2.477614
 H        -4.541907         0.631377        -0.945281
 H        -2.234465        -1.205854        -3.059852
 H        -0.621649        -0.673470        -2.347757
 H        -3.208274        -1.575723        -0.882747
 H        -1.993898        -1.139453         1.316945
 H        -0.927061        -2.293011         0.444837
 H        -1.919354         1.140157         1.060639
 H        -0.329256         1.956078         0.365834
