19
Iteration:  3523charge 0 multiplicity 1
 C        -3.828904         0.774859        -1.036303
 C        -2.494004         0.188200        -1.337704
 C        -2.266478        -0.830463        -2.469000
 C        -1.958760        -1.234787        -1.053957
 C        -0.539758        -1.300863        -0.612205
 C        -0.370244        -0.194806         0.372459
 O        -0.173891        -0.332081         1.597442
 C        -0.552358         1.229573        -0.346916
 O        -1.529663         1.307317        -1.373511
 H        -4.271797         1.178285        -1.940199
 H        -4.571688         0.004090        -0.766021
 H        -3.867673         1.516691        -0.267390
 H        -3.120219        -1.337234        -3.002480
 H        -1.426083        -0.564812        -3.199524
 H        -2.742161        -1.870066        -0.586870
 H        -0.215178        -2.193801        -0.049684
 H         0.106189        -1.281134        -1.522381
 H        -0.824319         1.910021         0.445535
 H         0.480579         1.483357        -0.717315
