19
Iteration:  2666charge 0 multiplicity 1
 C        -3.940363         0.698276        -1.740305
 C        -2.465841         0.233101        -1.499701
 C        -2.101490        -0.855984        -2.415284
 C        -2.293392        -1.182283        -0.868318
 C        -0.997704        -1.347548        -0.117821
 C        -0.231665        -0.117394         0.354380
 O         0.813465        -0.152419         0.943295
 C        -1.050441         1.155055         0.232219
 O        -1.479690         1.203319        -1.109972
 H        -4.073697         1.497418        -2.478999
 H        -4.494639        -0.146167        -2.282469
 H        -4.448029         0.988282        -0.805052
 H        -2.987456        -1.056054        -3.074844
 H        -1.010071        -0.893827        -2.789915
 H        -3.183181        -1.869042        -0.688448
 H        -1.252334        -1.537115         0.940326
 H        -0.400719        -2.130894        -0.659706
 H        -1.884530         1.358150         0.937377
 H        -0.428749         2.011445         0.386050
