19
Iteration:  1751
 C        -3.916290         0.530359        -1.686593
 C        -2.447901         0.238009        -1.522875
 C        -1.807110        -0.775048        -2.485290
 C        -2.197665        -1.108178        -0.996876
 C        -1.403122        -1.236978         0.331930
 C        -0.289171        -0.200216         0.480781
 O         0.906011        -0.360120         0.654862
 C        -0.882606         1.173645         0.102565
 O        -1.686051         1.356917        -1.105231
 H        -4.189912         1.307838        -2.441542
 H        -4.408756        -0.485884        -1.810756
 H        -4.220125         0.747694        -0.545319
 H        -2.590304        -1.008844        -3.285979
 H        -0.754969        -0.603307        -2.776490
 H        -3.112341        -1.615930        -0.822735
 H        -2.120287        -0.978463         1.088267
 H        -0.978076        -2.237383         0.524575
 H        -1.576659         1.630035         0.833514
 H        -0.038236         1.867984        -0.094356
