19
Iteration:  4807
 C        -4.055524         0.600919        -1.732338
 C        -2.608721         0.317051        -1.510245
 C        -1.744035        -0.509356        -2.425034
 C        -2.224811        -1.078723        -1.119752
 C        -1.221962        -1.321635         0.001618
 C        -0.260168        -0.224963         0.328282
 O         0.617764        -0.436804         1.176079
 C        -0.418045         1.103437        -0.364469
 O        -1.868935         1.246029        -0.652380
 H        -4.608137        -0.313419        -1.943317
 H        -4.476809         1.052849        -0.749353
 H        -4.138127         1.379853        -2.386687
 H        -2.098978        -0.883539        -3.390745
 H        -0.711421        -0.319615        -2.510556
 H        -2.980110        -1.910802        -1.138817
 H        -1.766945        -1.380772         0.953383
 H        -0.666105        -2.220264        -0.208306
 H        -0.131456         1.877679         0.327065
 H         0.174123         1.159799        -1.285968
