19
Iteration:  3952charge 0 multiplicity 1
 C        -3.799410         1.051722        -1.501546
 C        -2.454407         0.250934        -1.523603
 C        -2.028650        -0.829258        -2.519575
 C        -2.230211        -1.158070        -1.008462
 C        -0.996462        -1.434861        -0.149965
 C        -0.417171        -0.240725         0.450140
 O         0.735084        -0.087672         0.841862
 C        -1.261430         1.000497         0.351568
 O        -1.364848         1.085447        -1.126276
 H        -4.545197         0.500972        -2.151513
 H        -4.150064         1.214805        -0.469490
 H        -3.539497         2.046647        -2.145119
 H        -2.668310        -1.174965        -3.275895
 H        -0.959419        -0.928544        -2.895949
 H        -3.067702        -1.987362        -1.005605
 H        -1.358801        -2.207476         0.546148
 H        -0.171327        -2.075708        -0.604812
 H        -2.292265         1.088394         0.739705
 H        -0.716408         1.909266         0.787966
