19
Iteration:  2771charge 0 multiplicity 1
 C        -3.848767         0.720829        -0.985276
 C        -2.498570         0.146739        -1.481546
 C        -2.301090        -0.958842        -2.528215
 C        -2.044783        -1.117106        -1.064767
 C        -0.729431        -1.261701        -0.429889
 C        -0.468852        -0.080108         0.475048
 O         0.171410        -0.156819         1.548857
 C        -0.742218         1.280573        -0.245934
 O        -1.346459         1.077708        -1.553667
 H        -4.495606         1.125785        -1.778425
 H        -4.348554        -0.098567        -0.450151
 H        -3.675476         1.435180        -0.159054
 H        -3.178098        -1.395981        -2.918349
 H        -1.532455        -0.950571        -3.251670
 H        -2.739733        -1.827770        -0.633319
 H        -0.475942        -2.217837         0.180210
 H         0.009633        -1.218714        -1.261754
 H        -1.199255         2.070158         0.309686
 H         0.220141         1.610613        -0.670475
