19
Iteration:  3692charge 0 multiplicity 1
 C        -3.692350         0.947930        -1.281319
 C        -2.436683         0.185530        -1.459700
 C        -2.305776        -0.886828        -2.531547
 C        -2.052503        -1.128157        -1.001183
 C        -0.590830        -1.258062        -0.622187
 C        -0.345357        -0.226115         0.363208
 O         0.194107        -0.313921         1.479657
 C        -1.027303         1.084431         0.068148
 O        -1.449298         1.185584        -1.310598
 H        -4.521398         0.394509        -0.767941
 H        -3.408672         1.772811        -0.576077
 H        -4.202807         1.303306        -2.211409
 H        -3.236824        -1.138017        -2.996639
 H        -1.506773        -0.960899        -3.221992
 H        -2.555896        -1.706125        -0.242905
 H        -0.452783        -2.325765        -0.424843
 H         0.009241        -1.046102        -1.531201
 H        -1.949114         1.052112         0.735636
 H        -0.497760         2.106755         0.275060
