19
Iteration:  1813
 C        -3.732435         0.806155        -2.149287
 C        -2.568491         0.182295        -1.401196
 C        -1.919215        -0.932385        -2.199186
 C        -2.350791        -1.140684        -0.725087
 C        -1.191096        -1.405636         0.258433
 C        -0.252051        -0.193874         0.311661
 O         0.967100        -0.183773         0.475421
 C        -0.908516         1.161863         0.194712
 O        -1.856798         1.322054        -0.882721
 H        -3.407117         1.835558        -2.352528
 H        -4.064068         0.270610        -3.048858
 H        -4.700084         0.874094        -1.684961
 H        -2.502158        -1.545386        -2.911279
 H        -0.931799        -0.816240        -2.628097
 H        -3.260995        -1.734550        -0.681142
 H        -1.521092        -1.566662         1.364265
 H        -0.761700        -2.310330        -0.121466
 H        -1.374595         1.270118         1.189325
 H         0.021128         1.814943         0.068932
