19
Iteration:   544charge 0 multiplicity 1
 C        -3.867387         0.516496        -2.031470
 C        -2.586391         0.172149        -1.368960
 C        -1.519767        -0.628589        -2.163050
 C        -2.131741        -1.240860        -0.886745
 C        -1.293752        -1.218072         0.382195
 C        -0.266604        -0.169032         0.269193
 O         0.919289        -0.312433         0.437050
 C        -0.820125         1.200155        -0.241563
 O        -2.197183         1.297049        -0.528998
 H        -3.752368         0.603984        -3.075045
 H        -4.728091        -0.149900        -1.943848
 H        -4.384404         1.383712        -1.581762
 H        -1.816196        -1.077734        -3.186224
 H        -0.481673        -0.268414        -2.250880
 H        -2.819037        -2.042459        -1.146935
 H        -1.932881        -0.977225         1.218221
 H        -0.739767        -2.233432         0.626831
 H        -0.686681         1.915393         0.584096
 H        -0.204681         1.536214        -1.118277
