19
Iteration:  4567
 C        -3.885697         0.805993        -1.786285
 C        -2.527806         0.263747        -1.365269
 C        -1.688076        -0.623512        -2.333368
 C        -2.271258        -1.226907        -1.018253
 C        -1.209054        -1.522348        -0.050250
 C        -0.302711        -0.255852         0.330954
 O         0.734023        -0.383786         0.980155
 C        -0.710295         1.170432        -0.191486
 O        -1.942700         1.395700        -0.813534
 H        -4.305853         0.092942        -2.482525
 H        -4.617862         0.826738        -0.868912
 H        -3.757713         1.761410        -2.178172
 H        -2.129279        -1.018767        -3.286666
 H        -0.644791        -0.519132        -2.240328
 H        -3.108814        -1.988371        -0.870420
 H        -1.637353        -1.638599         0.990274
 H        -0.481330        -2.377703        -0.368680
 H        -0.811589         1.924004         0.608849
 H         0.150532         1.440918        -0.830252
