19
Iteration:  1757
 C        -3.948831         0.539835        -1.697062
 C        -2.427945         0.280795        -1.560132
 C        -1.789143        -0.803022        -2.402733
 C        -2.179092        -1.049581        -0.952918
 C        -1.371206        -1.290948         0.326677
 C        -0.304307        -0.202869         0.421557
 O         0.902816        -0.374827         0.638027
 C        -0.908934         1.225870         0.080100
 O        -1.711689         1.340415        -1.094644
 H        -4.207956         1.330689        -2.394202
 H        -4.326032        -0.374187        -2.143819
 H        -4.225400         0.777435        -0.731090
 H        -2.479337        -1.213515        -3.098384
 H        -0.754883        -0.662538        -2.657284
 H        -3.163889        -1.566302        -0.841300
 H        -2.073676        -1.133175         1.214424
 H        -1.019600        -2.322735         0.420375
 H        -1.446918         1.485122         1.042327
 H        -0.005975         1.863099         0.054462
