19
Iteration:  4928charge 0 multiplicity 1
 C        -3.779329         0.655942        -2.048957
 C        -2.454946         0.301120        -1.423384
 C        -1.774675        -0.701879        -2.287879
 C        -2.457627        -1.174398        -0.944110
 C        -1.284866        -1.385097         0.090921
 C        -0.276171        -0.247836         0.259528
 O         0.834472        -0.353234         0.685743
 C        -0.687685         1.167385         0.065406
 O        -1.939396         1.365356        -0.583860
 H        -4.176954        -0.309716        -2.436193
 H        -4.486472         1.048516        -1.288539
 H        -3.648805         1.295324        -2.881555
 H        -1.958000        -0.754700        -3.338063
 H        -0.644337        -0.679768        -2.261753
 H        -3.380445        -1.797001        -1.044557
 H        -1.851943        -1.365167         1.104487
 H        -0.723544        -2.262278        -0.184231
 H        -0.761910         1.710092         0.990171
 H         0.076159         1.570949        -0.654256
