19
Iteration:  3829charge 0 multiplicity 1
 C        -4.032803         0.676012        -1.353467
 C        -2.603324         0.273379        -1.547211
 C        -1.934739        -0.635100        -2.687755
 C        -2.125564        -1.131858        -1.241835
 C        -1.091593        -1.354077        -0.129013
 C        -0.341962        -0.209421         0.476927
 O         0.636040        -0.334153         1.260267
 C        -0.736641         1.176904         0.094783
 O        -1.563375         1.196069        -1.173917
 H        -4.775394        -0.146764        -1.439279
 H        -4.006437         1.154639        -0.344144
 H        -4.163962         1.509851        -2.104860
 H        -2.647816        -0.832206        -3.515601
 H        -0.922671        -0.348916        -3.007035
 H        -2.881231        -1.896770        -1.252646
 H        -1.590977        -1.844378         0.703428
 H        -0.506954        -2.208090        -0.308890
 H        -1.216085         1.700811         0.937366
 H         0.139546         1.600256        -0.235431
