19
Iteration:  4631
 C        -3.892378         0.620651        -1.680092
 C        -2.481543         0.213930        -1.437219
 C        -1.858598        -0.461307        -2.598999
 C        -2.155466        -1.233573        -1.155438
 C        -1.248625        -1.288323        -0.000484
 C        -0.289065        -0.239227         0.352197
 O         0.575971        -0.377089         1.220777
 C        -0.436933         1.148573        -0.448744
 O        -1.896909         1.250266        -0.544434
 H        -4.505252        -0.172348        -2.099813
 H        -4.411459         1.008290        -0.694139
 H        -4.077846         1.390107        -2.366879
 H        -2.651225        -0.658034        -3.414380
 H        -0.871323        -0.478386        -3.024367
 H        -3.131054        -1.770754        -1.224837
 H        -1.941788        -1.226269         0.837405
 H        -0.928747        -2.264834         0.061382
 H        -0.016123         1.913773         0.274045
 H         0.204715         1.186575        -1.354958
