19
Iteration:   489
 C        -4.023196         0.371090        -1.985265
 C        -2.565242         0.122993        -1.432804
 C        -1.438993        -0.490101        -2.164905
 C        -1.989934        -1.199815        -0.889495
 C        -1.349599        -1.091939         0.486658
 C        -0.254501        -0.173573         0.255217
 O         0.908846        -0.530091         0.373237
 C        -0.790232         1.317974        -0.146168
 O        -2.240046         1.319067        -0.639674
 H        -4.030170         0.753606        -2.984450
 H        -4.660604        -0.510712        -1.882144
 H        -4.370084         1.254158        -1.417896
 H        -1.609953        -1.096491        -3.096069
 H        -0.433583        -0.012537        -2.266958
 H        -2.523851        -2.048719        -1.226827
 H        -2.060778        -0.686855         1.130378
 H        -0.925416        -2.128557         0.816109
 H        -0.899534         1.858826         0.810451
 H        -0.068264         1.739146        -0.936622
