19
Iteration:  2141
 C        -3.861721         0.878890        -0.900062
 C        -2.511588         0.160655        -1.461097
 C        -2.400926        -1.002566        -2.415884
 C        -1.978692        -1.205200        -0.970055
 C        -0.460698        -1.331265        -0.660183
 C        -0.264875        -0.112421         0.437190
 O        -0.198721        -0.106382         1.653213
 C        -0.673126         1.293189        -0.334087
 O        -1.341085         0.998224        -1.608726
 H        -3.898738         1.905086        -1.392806
 H        -4.781448         0.378816        -1.237157
 H        -3.935478         1.081137         0.186262
 H        -3.232329        -1.478792        -2.950157
 H        -1.553822        -0.867818        -3.125822
 H        -2.555435        -1.911400        -0.337467
 H        -0.386025        -2.270676        -0.167633
 H         0.275395        -1.163325        -1.477265
 H        -1.477275         1.911704         0.113510
 H         0.175154         1.993753        -0.507762
