19
Iteration:  2795
 C        -3.813507         0.713870        -0.910148
 C        -2.538999         0.087482        -1.462138
 C        -2.328034        -0.901953        -2.479799
 C        -2.039537        -1.259651        -1.048411
 C        -0.574523        -1.290659        -0.510861
 C        -0.355700        -0.093014         0.396791
 O        -0.165827        -0.107781         1.599602
 C        -0.482393         1.229270        -0.430117
 O        -1.462890         1.182963        -1.475012
 H        -4.502070         0.952607        -1.714361
 H        -4.283920         0.005600        -0.162587
 H        -3.584533         1.602175        -0.313310
 H        -3.118856        -1.133655        -3.212511
 H        -1.357197        -0.769953        -3.067250
 H        -2.726716        -1.757823        -0.311184
 H        -0.281371        -2.171543         0.150852
 H         0.142587        -1.229256        -1.303671
 H        -0.843642         1.903453         0.394013
 H         0.371405         1.601469        -0.953538
