19
Iteration:  1921charge 0 multiplicity 1
 C        -3.879949         0.642905        -1.641497
 C        -2.389733         0.225307        -1.542337
 C        -1.737681        -0.825178        -2.373804
 C        -2.205973        -1.153898        -0.926157
 C        -1.313534        -1.215053         0.276371
 C        -0.324230        -0.123975         0.249857
 O         0.813269        -0.377397         0.527688
 C        -1.110107         1.207191         0.276984
 O        -1.564579         1.256161        -1.063183
 H        -4.126151         1.273790        -2.556323
 H        -4.560101        -0.269817        -1.823969
 H        -4.201506         1.276060        -0.773904
 H        -2.320543        -1.273825        -3.195907
 H        -0.689680        -0.521799        -2.594331
 H        -3.063907        -1.837575        -0.951214
 H        -1.956864        -1.042977         1.096662
 H        -0.918700        -2.201723         0.358955
 H        -1.945923         1.329696         0.944791
 H        -0.455687         2.148430         0.374381
