19
Iteration:  1713
 C        -4.005254         0.714683        -1.455721
 C        -2.551577         0.180235        -1.431413
 C        -1.777081        -0.756250        -2.475778
 C        -2.115599        -1.186338        -1.072783
 C        -1.226868        -1.228105         0.129067
 C        -0.338473        -0.117896         0.407591
 O         0.747393        -0.356974         0.894025
 C        -0.899204         1.248766        -0.009265
 O        -1.586878         1.144469        -1.222181
 H        -4.441900         1.222130        -2.325063
 H        -4.748576        -0.063478        -1.337496
 H        -4.039026         1.467740        -0.752730
 H        -2.321122        -1.236350        -3.228662
 H        -0.868380        -0.274525        -2.835281
 H        -2.807761        -2.073702        -1.156665
 H        -1.992407        -1.324069         0.976922
 H        -0.677609        -2.180278         0.191587
 H        -1.453124         1.671267         0.953922
 H        -0.051355         1.954931        -0.185024
