19
Iteration:  3095
 C        -3.814027         0.799026        -1.687320
 C        -2.341922         0.205689        -1.509575
 C        -1.781141        -0.965535        -2.375050
 C        -2.276147        -1.150822        -0.983489
 C        -1.328711        -1.368331         0.237718
 C        -0.419678        -0.146250         0.468558
 O         0.819891        -0.000195         0.336415
 C        -1.214922         1.124678         0.349909
 O        -1.419086         1.136395        -1.025820
 H        -3.725130         1.876701        -1.985922
 H        -4.588586         0.409786        -2.324685
 H        -4.222868         0.619476        -0.648393
 H        -2.483355        -1.322566        -3.172789
 H        -0.724121        -1.065155        -2.517073
 H        -3.127070        -1.963135        -0.946933
 H        -1.937431        -1.469650         1.186821
 H        -0.693795        -2.199724         0.066554
 H        -2.148963         1.094284         0.859545
 H        -0.436274         1.898270         0.644300
