19
Iteration:  3827
 C        -4.013088         0.684586        -1.353070
 C        -2.608101         0.262037        -1.539134
 C        -1.944873        -0.626715        -2.696242
 C        -2.133155        -1.156822        -1.243652
 C        -1.088156        -1.342343        -0.121072
 C        -0.336143        -0.212186         0.487148
 O         0.633590        -0.333337         1.270899
 C        -0.740526         1.155918         0.084941
 O        -1.567159         1.208339        -1.189260
 H        -4.735678        -0.154596        -1.424726
 H        -4.074449         1.150941        -0.269342
 H        -4.163516         1.518826        -2.027107
 H        -2.599819        -0.823979        -3.552230
 H        -0.866037        -0.303296        -2.953912
 H        -2.875617        -1.917620        -1.264720
 H        -1.657329        -1.809475         0.697482
 H        -0.491478        -2.182197        -0.374301
 H        -1.161193         1.656790         0.897820
 H         0.121307         1.719068        -0.298617
