19
Iteration:  3707charge 0 multiplicity 1
 C        -3.750357         1.026220        -1.366961
 C        -2.452570         0.187904        -1.478337
 C        -2.410968        -0.899423        -2.476012
 C        -2.070072        -1.219653        -1.048864
 C        -0.502650        -1.336293        -0.655933
 C        -0.329100        -0.200742         0.421344
 O         0.294403        -0.279157         1.479202
 C        -1.097768         1.062139         0.093437
 O        -1.443148         1.214612        -1.259076
 H        -4.694776         0.517707        -1.123472
 H        -3.611326         1.963758        -0.714334
 H        -3.678790         1.463709        -2.327051
 H        -3.389426        -1.190599        -3.019940
 H        -1.452970        -0.888466        -3.056038
 H        -2.892468        -1.799638        -0.546690
 H        -0.027507        -2.212329        -0.206874
 H         0.166277        -1.091977        -1.482099
 H        -2.067384         0.990581         0.782338
 H        -0.425541         1.861880         0.478265
