19
Iteration:   124
 C        -3.723783         0.420475        -0.571775
 C        -2.442514         0.115166        -1.465444
 C        -2.480008        -1.054789        -2.461322
 C        -1.982328        -1.255982        -1.032533
 C        -0.620069        -1.210258        -0.301565
 C        -0.434356         0.104578         0.374614
 O        -0.278096         0.204098         1.613297
 C        -0.456692         1.331954        -0.688223
 O        -1.317116         1.010453        -1.790126
 H        -4.559888         0.030483        -1.090192
 H        -3.582513        -0.053701         0.376751
 H        -3.961687         1.465785        -0.250866
 H        -3.471803        -1.653469        -2.601265
 H        -1.935704        -1.106053        -3.427178
 H        -2.709678        -1.860540        -0.435570
 H        -0.419343        -2.020581         0.442591
 H         0.172739        -1.232622        -1.066957
 H        -0.692300         2.238499        -0.103361
 H         0.528138         1.390551        -1.109143
