19
Iteration:  1950charge 0 multiplicity 1
 C        -3.897301         0.827199        -1.699869
 C        -2.463668         0.149729        -1.515654
 C        -1.911374        -0.921117        -2.450914
 C        -2.332569        -1.266578        -1.038614
 C        -1.219370        -1.311626         0.145645
 C        -0.299837        -0.097309         0.509299
 O         0.938211        -0.145270         0.657928
 C        -0.983531         1.203233         0.286745
 O        -1.601871         1.158118        -1.067692
 H        -3.685455         1.700411        -2.257730
 H        -4.518974         0.197927        -2.278802
 H        -4.418653         1.098198        -0.779745
 H        -2.481520        -1.226530        -3.328675
 H        -0.899371        -0.823010        -2.724099
 H        -3.215249        -1.954528        -0.897290
 H        -1.919383        -1.451136         1.045551
 H        -0.624689        -2.260967        -0.012569
 H        -1.838968         1.528711         0.941634
 H        -0.283041         2.013419         0.161507
