19
Iteration:   854charge 0 multiplicity 1
 C        -3.615192         0.497163        -0.699937
 C        -2.445498         0.056827        -1.442069
 C        -2.411758        -0.828175        -2.625104
 C        -1.861917        -1.270506        -1.297731
 C        -0.561514        -1.356892        -0.346250
 C        -0.457438         0.001079         0.376161
 O        -0.381945         0.105270         1.568670
 C        -0.434703         1.225634        -0.496179
 O        -1.549050         1.169537        -1.380506
 H        -3.676179         1.551082        -1.040337
 H        -4.540761        -0.080080        -0.767849
 H        -3.324171         0.521038         0.330701
 H        -3.230999        -1.472194        -2.759540
 H        -1.840271        -0.437202        -3.487730
 H        -2.700079        -1.834774        -0.826389
 H        -0.735649        -2.196573         0.339109
 H         0.403630        -1.696546        -0.980603
 H        -0.313758         2.190868        -0.028175
 H         0.464968         1.197833        -1.252004
