19
Iteration:   424
 C        -3.781665         0.417978        -1.945820
 C        -2.482373         0.149540        -1.423160
 C        -1.800740        -0.948570        -2.251086
 C        -2.345112        -1.179448        -0.838733
 C        -1.145389        -1.211311         0.121476
 C        -0.173348        -0.022583         0.218619
 O         0.939493        -0.283340         0.572843
 C        -0.879234         1.332412         0.093005
 O        -2.071206         1.400289        -0.798225
 H        -3.881164         1.461845        -2.292894
 H        -4.079900        -0.165953        -2.821377
 H        -4.610146         0.237545        -1.195453
 H        -2.445460        -1.279794        -3.043575
 H        -0.714741        -1.245507        -2.408114
 H        -3.181627        -1.627197        -0.403637
 H        -1.481303        -1.205074         1.133400
 H        -0.474007        -2.189144         0.084253
 H        -1.288304         1.437578         1.128686
 H        -0.254601         2.288131        -0.112251
