19
Iteration:  1234
 C        -3.861046         0.562893        -1.874295
 C        -2.367229         0.328997        -1.501278
 C        -1.626646        -0.784611        -2.185616
 C        -2.252892        -1.053682        -0.779419
 C        -1.437389        -1.371335         0.526975
 C        -0.308777        -0.278923         0.405745
 O         0.868607        -0.284443         0.104132
 C        -1.115422         1.118174         0.256267
 O        -1.614550         1.397947        -1.074654
 H        -3.933876         1.449827        -2.539489
 H        -4.366017        -0.177401        -2.495652
 H        -4.481135         0.669261        -1.061516
 H        -1.878985        -1.416186        -3.063047
 H        -0.533134        -0.503610        -2.014107
 H        -3.056612        -1.781499        -0.811372
 H        -2.199722        -0.997496         1.401203
 H        -1.275540        -2.532360         0.488796
 H        -1.962094         1.177463         0.958425
 H        -0.539488         2.075794         0.618130
