19
Iteration:  2238
 C        -3.715574         0.817770        -0.797526
 C        -2.463101         0.147136        -1.405344
 C        -2.380462        -1.015887        -2.470865
 C        -1.863509        -1.285115        -1.102850
 C        -0.486876        -1.303420        -0.459301
 C        -0.536979        -0.061240         0.405699
 O        -0.221638        -0.134385         1.577395
 C        -0.686203         1.268499        -0.392466
 O        -1.385966         1.157246        -1.621798
 H        -4.335301         1.236766        -1.592465
 H        -4.241532         0.045263        -0.284092
 H        -3.519200         1.607865        -0.122263
 H        -3.306452        -1.513698        -2.769904
 H        -1.782410        -0.766175        -3.411218
 H        -2.643008        -2.008549        -0.726646
 H        -0.329678        -2.177880         0.189617
 H         0.332566        -1.211690        -1.309415
 H        -1.056658         2.017375         0.310316
 H         0.362373         1.622455        -0.740713
