19
Iteration:   574
 C        -3.991913         0.670401        -1.990064
 C        -2.673614         0.117382        -1.465789
 C        -1.639799        -0.817295        -2.158957
 C        -2.254561        -1.241229        -0.789264
 C        -1.160362        -1.357885         0.218884
 C        -0.218199        -0.147013         0.318553
 O         0.995434        -0.189910         0.589457
 C        -0.850523         1.249356        -0.085540
 O        -2.038151         1.275002        -0.821554
 H        -3.876843         1.321249        -2.909890
 H        -4.853701        -0.020250        -2.187572
 H        -4.365772         1.410277        -1.257311
 H        -1.803666        -1.404412        -3.082915
 H        -0.727672        -0.247720        -2.110931
 H        -2.941945        -2.038364        -0.890643
 H        -1.436850        -1.540736         1.355038
 H        -0.407780        -2.157959         0.071487
 H        -1.122070         1.765335         0.848665
 H        -0.129515         1.896887        -0.536388
