19
Iteration:   821
 C        -3.918337         0.417879        -0.819351
 C        -2.531939         0.188511        -1.381486
 C        -2.173776        -0.784589        -2.509597
 C        -2.002790        -1.212192        -1.078940
 C        -0.608893        -1.476814        -0.381765
 C        -0.353675        -0.009749         0.334721
 O        -0.194535         0.033146         1.551538
 C        -0.434502         1.236305        -0.537100
 O        -1.527770         1.237547        -1.485038
 H        -4.204008         1.474911        -0.935094
 H        -4.717490        -0.145558        -1.291373
 H        -3.911766         0.248288         0.212543
 H        -2.826907        -1.314666        -3.160105
 H        -1.265139        -0.486826        -3.004806
 H        -2.708797        -1.770233        -0.469630
 H        -0.719965        -2.214983         0.412395
 H         0.294225        -1.642967        -1.105682
 H        -0.439493         2.094872         0.113327
 H         0.504371         1.158175        -1.191048
