19
Iteration:  1428
 C        -3.690309         0.985581        -0.846551
 C        -2.448762         0.144460        -1.434375
 C        -2.523627        -1.045878        -2.409387
 C        -1.921514        -1.297393        -1.005512
 C        -0.414095        -1.265861        -0.647681
 C        -0.394849        -0.089995         0.381371
 O        -0.291295        -0.158621         1.589703
 C        -0.758417         1.319559        -0.338659
 O        -1.306863         0.994785        -1.587415
 H        -3.434387         2.073129        -1.122495
 H        -4.544309         0.674834        -1.500890
 H        -3.843855         0.921105         0.253760
 H        -3.494441        -1.603496        -2.478364
 H        -2.015729        -1.061806        -3.404348
 H        -2.396781        -1.918655        -0.267880
 H        -0.055668        -2.112162        -0.128691
 H         0.284047        -1.042867        -1.409314
 H        -1.219280         2.013286         0.350820
 H         0.276022         1.694447        -0.559364
