19
Iteration:  4241
 C        -3.983885         0.664035        -1.853551
 C        -2.594660         0.335293        -1.407115
 C        -1.871826        -0.630182        -2.414725
 C        -2.240862        -1.110064        -1.033248
 C        -1.080993        -1.462191         0.002527
 C        -0.261892        -0.250213         0.459404
 O         0.791390        -0.395390         1.083843
 C        -0.645671         1.103192        -0.058399
 O        -1.890756         1.411236        -0.970030
 H        -4.476896         0.062459        -2.650517
 H        -4.756886         0.593948        -0.976117
 H        -4.176900         1.680096        -2.166885
 H        -2.446495        -0.841677        -3.346832
 H        -0.800186        -0.609623        -2.551373
 H        -3.134743        -1.707740        -0.889267
 H        -1.613661        -2.004543         0.803153
 H        -0.410597        -2.300375        -0.360558
 H        -0.534787         1.780655         0.809211
 H         0.283508         1.331234        -0.656467
