19
Iteration:  1058
 C        -3.967616         0.679684        -1.395469
 C        -2.562986         0.108193        -1.502117
 C        -1.843576        -0.816909        -2.501744
 C        -2.035315        -1.190774        -1.076115
 C        -1.199623        -1.197713         0.144117
 C        -0.298653        -0.091817         0.306379
 O         0.714745        -0.318844         1.001231
 C        -0.888573         1.246384        -0.070067
 O        -1.641055         1.214776        -1.232834
 H        -4.114879         1.568540        -2.018555
 H        -4.782092        -0.000274        -1.655000
 H        -4.174314         1.044869        -0.393915
 H        -2.340286        -1.554459        -3.129320
 H        -0.910001        -0.560161        -2.900421
 H        -2.835760        -1.908777        -0.747634
 H        -1.863448        -1.189852         0.980585
 H        -0.563737        -2.041561         0.258932
 H        -1.723327         1.464496         0.686303
 H        -0.117922         2.026228        -0.087189
