19
Iteration:  4316charge 0 multiplicity 1
 C        -4.046578         0.709124        -1.899184
 C        -2.568541         0.278124        -1.487336
 C        -1.704750        -0.578468        -2.444553
 C        -2.134388        -1.083026        -1.004279
 C        -1.330675        -1.379692         0.244362
 C        -0.251465        -0.275902         0.435294
 O         0.913913        -0.427930         0.825502
 C        -0.781323         1.104982        -0.024182
 O        -1.858502         1.313532        -0.831092
 H        -4.689121        -0.142668        -2.319441
 H        -4.761517         1.269147        -1.145530
 H        -4.164158         1.305093        -2.793797
 H        -2.182476        -1.116783        -3.307080
 H        -0.717383        -0.157598        -2.780676
 H        -2.966750        -1.767941        -1.083435
 H        -1.932599        -1.513818         1.162866
 H        -0.835465        -2.432703         0.017343
 H        -0.888210         1.549534         0.960547
 H         0.256808         1.566826        -0.293380
