19
Iteration:  2343charge 0 multiplicity 1
 C        -3.859036         0.923696        -1.425870
 C        -2.518241         0.113949        -1.441755
 C        -2.181958        -1.082626        -2.400213
 C        -2.177989        -1.296770        -0.900359
 C        -0.759437        -1.346771        -0.339020
 C        -0.313262        -0.133852         0.338581
 O         0.440724        -0.052806         1.295813
 C        -0.889151         1.176679        -0.064129
 O        -1.526063         1.254023        -1.319781
 H        -3.812104         2.026587        -1.594861
 H        -4.538903         0.600854        -2.304900
 H        -4.332206         0.669872        -0.435650
 H        -3.001243        -1.448485        -3.037716
 H        -1.148981        -1.042271        -2.901177
 H        -2.966961        -1.858022        -0.422220
 H        -0.681548        -2.185416         0.400423
 H         0.097703        -1.566485        -1.017965
 H        -1.602806         1.492590         0.797817
 H        -0.073432         1.874723        -0.144427
