19
Iteration:    19charge 0 multiplicity 1
 C        -4.004026         0.581966        -1.163576
 C        -2.554253         0.174696        -1.560278
 C        -2.321358        -1.204353        -2.329511
 C        -2.097208        -1.055080        -0.812182
 C        -0.611250        -1.214835        -0.433917
 C        -0.274678        -0.048077         0.457679
 O         0.250517        -0.025578         1.549283
 C        -0.661187         1.248588        -0.359805
 O        -1.498644         1.167004        -1.611777
 H        -4.108586         0.746088        -0.022536
 H        -4.250316         1.613051        -1.587606
 H        -4.639912        -0.209976        -1.509630
 H        -3.166369        -1.758163        -2.755673
 H        -1.386181        -1.243340        -2.831055
 H        -2.830121        -1.484202         0.001471
 H        -0.351542        -2.251036        -0.105425
 H        -0.107616        -1.004250        -1.379022
 H        -1.039748         1.959243         0.400221
 H         0.317219         1.613199        -0.631350
