19
Iteration:  3365
 C        -4.033348         0.638735        -1.517876
 C        -2.507923         0.215904        -1.553215
 C        -2.109312        -0.796947        -2.538566
 C        -2.240337        -1.157220        -1.098888
 C        -0.935757        -1.335291        -0.249633
 C        -0.245635        -0.131891         0.446485
 O         0.593892        -0.337153         1.343910
 C        -0.551056         1.240833        -0.080720
 O        -1.703063         1.317254        -1.061289
 H        -4.198563         1.769300        -1.442878
 H        -4.459637         0.188088        -2.393850
 H        -4.607132         0.269726        -0.593317
 H        -3.001497        -1.082631        -3.068563
 H        -1.177289        -0.794197        -3.086169
 H        -3.207388        -1.712791        -0.826738
 H        -1.169763        -2.030711         0.631188
 H        -0.074663        -1.910238        -0.816929
 H        -1.047397         1.794880         0.784029
 H         0.359025         1.771397        -0.428424
