19
Iteration:  4551
 C        -3.873322         0.692251        -1.817720
 C        -2.478171         0.219804        -1.445261
 C        -1.809681        -0.718196        -2.407246
 C        -2.296336        -1.173071        -1.095990
 C        -1.241376        -1.368186         0.027933
 C        -0.315717        -0.219106         0.314454
 O         0.749718        -0.369811         0.897800
 C        -0.659972         1.207971        -0.010688
 O        -1.888550         1.350796        -0.724917
 H        -4.380192         0.010367        -2.558250
 H        -4.428419         0.804933        -0.919058
 H        -3.647058         1.731075        -2.302840
 H        -2.358537        -0.750686        -3.340794
 H        -0.678120        -0.775329        -2.573401
 H        -3.170376        -1.771148        -1.082670
 H        -1.703353        -1.660706         1.011941
 H        -0.676264        -2.246857         0.000158
 H        -0.647814         1.691611         1.009234
 H         0.186824         1.604670        -0.625579
