19
Iteration:   523charge 0 multiplicity 1
 C        -3.842640         0.235784        -2.023498
 C        -2.468489         0.293910        -1.370904
 C        -1.510475        -0.558032        -2.256726
 C        -2.192703        -1.161184        -0.971804
 C        -1.564465        -1.116419         0.363344
 C        -0.279270        -0.138389         0.275951
 O         0.905436        -0.310432         0.362891
 C        -0.662566         1.252811        -0.196899
 O        -2.125104         1.180501        -0.341807
 H        -3.776567         0.322683        -3.071611
 H        -4.493151        -0.611112        -1.821842
 H        -4.529792         1.054719        -1.651403
 H        -1.992796        -0.773949        -3.294064
 H        -0.406863        -0.619834        -2.280733
 H        -2.969141        -1.944961        -1.108672
 H        -2.127111        -0.647419         1.080394
 H        -1.069767        -2.000112         0.916938
 H        -0.445437         2.111931         0.465259
 H        -0.244233         1.516451        -1.232393
