19
Iteration:  3450
 C        -3.674521         0.893827        -1.042018
 C        -2.420057         0.209545        -1.532610
 C        -2.458539        -0.905643        -2.628343
 C        -2.058946        -1.217111        -1.209741
 C        -0.571618        -1.289016        -0.499622
 C        -0.437593        -0.093982         0.540601
 O         0.270387        -0.162457         1.522451
 C        -1.113948         1.140735        -0.072473
 O        -1.312309         1.042209        -1.415765
 H        -3.575956         2.020866        -0.885484
 H        -4.541774         0.876603        -1.660055
 H        -3.958440         0.409107        -0.034223
 H        -3.414186        -1.319185        -2.925528
 H        -1.797683        -0.947022        -3.517682
 H        -2.879341        -1.780562        -0.638811
 H        -0.471869        -2.321266        -0.139285
 H         0.282733        -1.112860        -1.119994
 H        -1.828579         1.539448         0.691505
 H        -0.133811         1.725172         0.014528
