19
Iteration:  4263
 C        -3.890039         0.688048        -1.727443
 C        -2.495175         0.301299        -1.565686
 C        -1.765717        -0.792232        -2.373826
 C        -2.289427        -1.073341        -0.971807
 C        -1.182163        -1.430247        -0.070757
 C        -0.252674        -0.209086         0.256802
 O         0.686522        -0.377514         1.016356
 C        -0.697642         1.205332        -0.045003
 O        -1.882138         1.380098        -0.825825
 H        -4.549528         0.059664        -2.388677
 H        -4.594464         0.827358        -0.808362
 H        -3.994661         1.676850        -2.203597
 H        -2.234400        -1.247641        -3.260444
 H        -0.673772        -0.768275        -2.348948
 H        -3.094319        -1.811508        -1.057053
 H        -1.474625        -1.875172         0.911103
 H        -0.612892        -2.353723        -0.427428
 H        -0.872741         1.502426         1.021472
 H         0.287125         1.709472        -0.346300
