19
Iteration:  1614
 C        -3.768913         1.043164        -1.388400
 C        -2.637465         0.092743        -1.533565
 C        -2.347404        -1.128389        -2.425063
 C        -2.146596        -1.184375        -0.853122
 C        -0.627933        -1.173086        -0.452388
 C        -0.359545        -0.090595         0.515956
 O         0.476086        -0.137184         1.401817
 C        -0.974717         1.132105        -0.030561
 O        -1.435558         0.977354        -1.428386
 H        -3.628708         1.987717        -2.012672
 H        -4.766197         0.677986        -1.748117
 H        -3.870633         1.474067        -0.403904
 H        -3.266326        -1.503328        -2.947012
 H        -1.451712        -0.897568        -2.949380
 H        -2.814035        -1.846924        -0.280772
 H        -0.188899        -2.213607        -0.329324
 H        -0.168496        -0.820327        -1.416617
 H        -1.777345         1.578607         0.699268
 H        -0.177805         1.839524        -0.012793
