19
Iteration:  3857charge 0 multiplicity 1
 C        -3.912833         0.715931        -1.499537
 C        -2.507381         0.320516        -1.450881
 C        -2.029743        -0.668434        -2.551344
 C        -2.159934        -1.163392        -1.131543
 C        -1.044612        -1.417412        -0.122075
 C        -0.325825        -0.226435         0.429066
 O         0.637067        -0.393393         1.124529
 C        -0.898432         1.161761         0.119391
 O        -1.555612         1.356425        -1.186845
 H        -4.452669        -0.228807        -1.495367
 H        -4.199142         1.372815        -0.645484
 H        -4.120105         1.108594        -2.460390
 H        -2.682292        -0.886842        -3.370405
 H        -0.957025        -0.461724        -2.855894
 H        -2.982894        -1.873406        -0.966027
 H        -1.345345        -2.070260         0.732904
 H        -0.232385        -2.168574        -0.455084
 H        -1.621216         1.258924         0.980126
 H         0.026157         1.906146         0.175743
