19
Iteration:  2235charge 0 multiplicity 1
 C        -3.736520         0.793218        -0.784692
 C        -2.461079         0.159067        -1.409514
 C        -2.375319        -0.973158        -2.435100
 C        -1.869835        -1.265806        -1.094289
 C        -0.492725        -1.301864        -0.518722
 C        -0.539954        -0.049103         0.402422
 O        -0.233189        -0.122521         1.591419
 C        -0.695024         1.240396        -0.384111
 O        -1.360772         1.128831        -1.652398
 H        -4.315213         1.182300        -1.619726
 H        -4.343910        -0.015881        -0.266950
 H        -3.518252         1.606210        -0.074238
 H        -3.287265        -1.541972        -2.790750
 H        -1.789389        -0.750788        -3.369183
 H        -2.562608        -1.980160        -0.683492
 H        -0.294832        -2.132975         0.200861
 H         0.398671        -1.242722        -1.229051
 H        -0.938540         2.060040         0.313424
 H         0.365345         1.513232        -0.658415
