19
Iteration:   913charge 0 multiplicity 1
 C        -3.685582         0.668014        -0.814165
 C        -2.386837         0.179960        -1.408299
 C        -2.434878        -1.006109        -2.324685
 C        -1.924119        -1.218984        -0.957745
 C        -0.375787        -1.192653        -0.614203
 C        -0.350071        -0.035902         0.299479
 O        -0.470668        -0.225014         1.484602
 C        -0.636516         1.351858        -0.331311
 O        -1.361360         1.110329        -1.637125
 H        -4.305967         1.157790        -1.511273
 H        -4.307847        -0.136920        -0.462190
 H        -3.534307         1.331504         0.030343
 H        -3.519059        -1.259134        -2.590680
 H        -1.785984        -1.095546        -3.189509
 H        -2.636749        -1.533802        -0.224506
 H        -0.176911        -2.062168         0.061688
 H         0.186548        -1.237043        -1.503300
 H        -1.194544         1.944326         0.440190
 H         0.279360         1.799717        -0.645996
