19
Iteration:  4598
 C        -4.097333         0.744034        -1.847267
 C        -2.588456         0.305045        -1.446023
 C        -1.704796        -0.492820        -2.381804
 C        -2.194211        -1.082639        -1.015788
 C        -1.179115        -1.448522        -0.018677
 C        -0.283404        -0.298991         0.405364
 O         0.700900        -0.366313         1.129422
 C        -0.530055         1.004600        -0.375437
 O        -1.931433         1.321014        -0.696194
 H        -4.506138        -0.105592        -2.403759
 H        -4.651560         0.831446        -0.823820
 H        -4.079822         1.652479        -2.393188
 H        -2.145079        -0.999301        -3.328793
 H        -0.651861        -0.246655        -2.500466
 H        -2.986340        -1.884772        -0.950465
 H        -1.505122        -1.878666         0.915541
 H        -0.567025        -2.288482        -0.276313
 H        -0.354752         1.885064         0.341771
 H         0.241682         1.026217        -1.173492
