19
Iteration:  3779
 C        -3.923890         0.749671        -1.289958
 C        -2.467096         0.347660        -1.516519
 C        -2.039103        -0.761229        -2.574838
 C        -2.132159        -1.187365        -1.112969
 C        -0.917732        -1.468308        -0.293272
 C        -0.390144        -0.222437         0.396445
 O         0.426131        -0.269489         1.264701
 C        -0.870082         1.122845         0.011632
 O        -1.470916         1.342884        -1.218500
 H        -4.504125         0.123424        -1.974186
 H        -4.244187         0.489293        -0.271980
 H        -4.007199         1.850800        -1.394156
 H        -2.698794        -1.271829        -3.296386
 H        -1.065156        -0.637135        -2.933037
 H        -3.137922        -1.561225        -0.853783
 H        -1.172028        -2.147334         0.566629
 H        -0.052585        -2.103745        -0.770233
 H        -1.498546         1.462430         0.816058
 H         0.166485         1.688851         0.084864
