19
Iteration:  2524charge 0 multiplicity 1
 C        -3.833052         0.862435        -2.076831
 C        -2.580176         0.175413        -1.402181
 C        -1.702044        -0.936879        -2.104744
 C        -2.398065        -1.128473        -0.740771
 C        -1.198120        -1.443461         0.193566
 C        -0.295732        -0.139539         0.349340
 O         0.951868        -0.117627         0.324295
 C        -1.052710         1.077581         0.295058
 O        -1.765806         1.237240        -0.932670
 H        -3.454917         1.862125        -2.319168
 H        -4.113986         0.432116        -3.055193
 H        -4.688512         1.016435        -1.398462
 H        -2.031848        -1.521399        -2.994793
 H        -0.645467        -0.739030        -1.990330
 H        -3.166945        -1.869734        -0.816163
 H        -1.301646        -1.681071         1.216792
 H        -0.585945        -2.169291        -0.346122
 H        -1.733260         1.320578         1.151696
 H        -0.346397         1.864746         0.275785
