19
Iteration:  3785
 C        -3.944411         0.765452        -1.263135
 C        -2.434917         0.280301        -1.512744
 C        -2.031347        -0.737787        -2.591776
 C        -2.090801        -1.150691        -1.104490
 C        -0.939677        -1.485265        -0.262575
 C        -0.385993        -0.253321         0.335661
 O         0.417458        -0.272848         1.263884
 C        -0.852233         1.134864         0.010626
 O        -1.493540         1.360758        -1.227475
 H        -4.539081         0.195027        -1.996778
 H        -4.242472         0.485291        -0.249828
 H        -4.152698         1.821563        -1.511748
 H        -2.680397        -1.228057        -3.304067
 H        -0.976143        -0.488920        -2.938926
 H        -2.982472        -1.693116        -0.803362
 H        -1.271371        -2.013256         0.639277
 H        -0.166557        -2.146267        -0.539061
 H        -1.526267         1.538165         0.883320
 H         0.095357         1.517822         0.057088
