19
Iteration:  2719charge 0 multiplicity 1
 C        -3.813741         0.973462        -1.405644
 C        -2.502794         0.168699        -1.550057
 C        -2.315664        -1.042996        -2.428761
 C        -2.136922        -1.219096        -0.958141
 C        -0.725322        -1.368652        -0.352346
 C        -0.300788        -0.107659         0.425128
 O         0.551201        -0.012321         1.260698
 C        -1.049997         1.092716         0.079631
 O        -1.474006         1.090935        -1.339840
 H        -3.614579         1.924943        -1.878753
 H        -4.730866         0.643122        -1.958835
 H        -4.017111         1.036668        -0.332050
 H        -3.063643        -1.516953        -3.071521
 H        -1.300007        -1.091255        -2.907720
 H        -2.958697        -1.665340        -0.352300
 H        -0.613265        -2.145120         0.449455
 H        -0.061889        -1.547772        -1.152469
 H        -2.018891         1.156307         0.761873
 H        -0.519908         2.021377         0.150128
