19
Iteration:  4555
 C        -3.850305         0.716162        -1.818694
 C        -2.494534         0.219534        -1.397071
 C        -1.775954        -0.707877        -2.380778
 C        -2.289971        -1.190568        -1.072591
 C        -1.214416        -1.394541        -0.000748
 C        -0.318018        -0.227863         0.322550
 O         0.740056        -0.365125         0.910481
 C        -0.645726         1.203570        -0.032366
 O        -1.917351         1.356070        -0.766994
 H        -4.407224         0.123167        -2.549886
 H        -4.508251         0.855341        -0.858835
 H        -3.779891         1.681238        -2.240730
 H        -2.285870        -0.711556        -3.400624
 H        -0.705791        -0.782455        -2.523803
 H        -3.250031        -1.784014        -1.048908
 H        -1.880166        -1.657939         0.855486
 H        -0.626992        -2.359703        -0.084363
 H        -0.595926         1.752280         0.962595
 H         0.126759         1.638125        -0.678802
