19
Iteration:  1583
 C        -3.798317         0.815574        -1.151557
 C        -2.422822         0.192670        -1.427875
 C        -2.442909        -0.972013        -2.403835
 C        -2.050849        -1.249492        -0.968111
 C        -0.606766        -1.427388        -0.424536
 C        -0.306335        -0.053450         0.322787
 O         0.113178        -0.110777         1.464936
 C        -0.827533         1.285707        -0.184487
 O        -1.333439         1.140734        -1.526942
 H        -4.078471         1.484997        -2.062355
 H        -4.589285         0.005383        -1.025846
 H        -3.907297         1.468549        -0.245991
 H        -3.458159        -1.217629        -2.752904
 H        -1.710122        -0.919830        -3.176115
 H        -2.798890        -1.777170        -0.334949
 H        -0.705870        -2.282251         0.281000
 H         0.027296        -1.735961        -1.205639
 H        -1.551396         1.399926         0.557785
 H        -0.048709         2.028702        -0.034068
