19
Iteration:  4583charge 0 multiplicity 1
 C        -3.975438         0.749872        -1.798823
 C        -2.613787         0.288596        -1.490047
 C        -1.696193        -0.575251        -2.275454
 C        -2.228247        -1.128159        -0.975614
 C        -1.094399        -1.502272         0.090576
 C        -0.298033        -0.316841         0.310943
 O         0.673548        -0.386984         1.029598
 C        -0.611977         1.079400        -0.255397
 O        -1.966182         1.377816        -0.800156
 H        -4.647769         0.273164        -2.544037
 H        -4.533861         0.930010        -0.951623
 H        -3.934041         1.830277        -2.245977
 H        -1.991584        -0.937182        -3.248714
 H        -0.638314        -0.168391        -2.330510
 H        -2.990145        -1.757680        -1.322644
 H        -1.522297        -2.071391         0.935852
 H        -0.451591        -2.136938        -0.522466
 H        -0.277488         1.727568         0.560205
 H         0.060261         1.341785        -1.094125
