19
Iteration:  3200charge 0 multiplicity 1
 C        -3.776384         0.627648        -1.961716
 C        -2.500215         0.179207        -1.444886
 C        -1.598790        -0.717882        -2.192660
 C        -2.276289        -1.228874        -0.906307
 C        -1.308107        -1.299239         0.232181
 C        -0.327550        -0.169553         0.301404
 O         0.854522        -0.473649         0.392775
 C        -0.873921         1.287243         0.084371
 O        -2.029059         1.411044        -0.673845
 H        -3.628437         1.641971        -2.440181
 H        -4.045604        -0.087684        -2.747044
 H        -4.659127         0.899323        -1.337997
 H        -2.071562        -1.040979        -3.176324
 H        -0.546414        -0.462022        -2.269516
 H        -2.951716        -2.126197        -1.023210
 H        -1.808910        -1.413159         1.213592
 H        -0.482312        -2.125919         0.288237
 H        -0.848877         1.761727         1.143897
 H        -0.052285         1.840911        -0.343917
