19
Iteration:  2427charge 0 multiplicity 1
 C        -3.845657         0.758854        -1.494421
 C        -2.483633         0.185849        -1.463662
 C        -1.868235        -0.786776        -2.412562
 C        -2.135239        -1.277988        -1.049412
 C        -1.136383        -1.429822         0.204891
 C        -0.417996        -0.171822         0.393601
 O         0.763031        -0.158769         0.772757
 C        -1.055732         1.168849         0.068497
 O        -1.590460         1.286343        -1.245487
 H        -3.944535         1.161601        -2.465692
 H        -4.619495         0.034191        -1.265099
 H        -3.998077         1.606964        -0.825111
 H        -2.511471        -1.311112        -3.089170
 H        -0.875936        -0.455999        -2.791805
 H        -2.996084        -1.904613        -1.025994
 H        -1.835847        -1.649084         1.012032
 H        -0.210024        -2.107238         0.106322
 H        -1.832414         1.251024         0.858048
 H        -0.425339         2.000900         0.233064
