19
Iteration:   860
 C        -3.624749         0.525878        -0.661851
 C        -2.441205         0.049628        -1.440767
 C        -2.426571        -0.819120        -2.643824
 C        -1.851351        -1.290691        -1.260837
 C        -0.534176        -1.335596        -0.414839
 C        -0.473219        -0.039227         0.393200
 O        -0.400921         0.125048         1.609933
 C        -0.443607         1.228961        -0.541983
 O        -1.518333         1.146965        -1.392827
 H        -3.834565         1.550624        -1.036957
 H        -4.561453        -0.072062        -0.684169
 H        -3.233658         0.682983         0.426870
 H        -3.279967        -1.465266        -3.016319
 H        -1.719829        -0.548630        -3.393088
 H        -2.679019        -1.900919        -0.938600
 H        -0.630958        -2.168433         0.284519
 H         0.294090        -1.580460        -0.986718
 H        -0.423497         2.233658        -0.023528
 H         0.470941         1.119465        -1.090066
