19
Iteration:  1402charge 0 multiplicity 1
 C        -3.649227         0.990956        -0.977858
 C        -2.440970         0.153166        -1.385507
 C        -2.453189        -0.852210        -2.467942
 C        -1.987810        -1.277565        -1.009671
 C        -0.544046        -1.327617        -0.483290
 C        -0.336061        -0.121772         0.363824
 O        -0.001990        -0.080098         1.544715
 C        -0.974636         1.162456        -0.283509
 O        -1.358645         0.943310        -1.612745
 H        -3.578063         1.921480        -1.493341
 H        -4.512207         0.430818        -1.319366
 H        -3.656000         1.184095         0.120548
 H        -3.347656        -1.340642        -2.829814
 H        -1.695296        -0.649591        -3.214778
 H        -2.633028        -1.982684        -0.405561
 H        -0.254495        -2.112511         0.276888
 H         0.343850        -1.273052        -1.236424
 H        -1.775868         1.346291         0.453129
 H        -0.313201         1.959014        -0.179194
