19
Iteration:  2765
 C        -3.836422         0.730088        -1.013078
 C        -2.512148         0.176599        -1.510656
 C        -2.330281        -0.937949        -2.523896
 C        -2.042777        -1.155510        -1.043140
 C        -0.695759        -1.280552        -0.392405
 C        -0.479399        -0.085529         0.488792
 O         0.225296        -0.154459         1.503717
 C        -0.801116         1.283520        -0.267141
 O        -1.323274         1.052415        -1.538071
 H        -4.434623         1.103326        -1.845603
 H        -4.521405        -0.087156        -0.658071
 H        -3.645959         1.379307        -0.152074
 H        -3.302066        -1.304692        -2.983145
 H        -1.491935        -0.891010        -3.321271
 H        -2.829218        -1.671634        -0.426343
 H        -0.624334        -2.158267         0.182755
 H         0.159579        -1.159027        -1.075626
 H        -1.398036         1.931850         0.502586
 H         0.214169         1.750241        -0.376320
