19
Iteration:  2175charge 0 multiplicity 1
 C        -3.670624         0.767620        -0.884017
 C        -2.397224         0.158344        -1.416271
 C        -2.442338        -1.073575        -2.396486
 C        -1.913037        -1.207655        -0.922756
 C        -0.445053        -1.287544        -0.591216
 C        -0.537721        -0.020184         0.308071
 O        -0.334504        -0.182878         1.484893
 C        -0.611720         1.290808        -0.391557
 O        -1.400077         1.149474        -1.525276
 H        -3.714854         1.826652        -1.306463
 H        -4.564712         0.217475        -1.179306
 H        -3.726608         0.887958         0.242561
 H        -3.440681        -1.363092        -2.547001
 H        -1.611731        -1.088021        -3.123102
 H        -2.544182        -1.781086        -0.182902
 H        -0.152053        -2.024282         0.130706
 H         0.377520        -1.191460        -1.305120
 H        -0.906018         2.108668         0.350345
 H         0.409382         1.436206        -0.747362
