19
Iteration:  3915
 C        -3.784344         0.982097        -1.699569
 C        -2.489835         0.194711        -1.513863
 C        -2.135325        -0.790754        -2.560108
 C        -2.272256        -1.185278        -1.025626
 C        -0.978162        -1.455721        -0.233327
 C        -0.292135        -0.181271         0.567743
 O         0.856909        -0.201191         0.930560
 C        -1.227265         1.122793         0.373062
 O        -1.467467         1.143122        -1.047912
 H        -4.498369         0.364265        -2.270603
 H        -4.330158         1.290856        -0.776115
 H        -3.545687         1.865333        -2.279145
 H        -3.046083        -1.015921        -3.224841
 H        -1.179105        -0.994763        -2.959129
 H        -3.013751        -1.882038        -0.643951
 H        -1.155447        -2.207114         0.538085
 H        -0.226545        -1.718475        -0.912494
 H        -2.166787         1.050123         0.950601
 H        -0.712246         1.968053         0.718181
