19
Iteration:  3918
 C        -3.739473         0.969577        -1.679763
 C        -2.499169         0.215251        -1.500218
 C        -2.168426        -0.790643        -2.573297
 C        -2.277509        -1.197787        -1.027517
 C        -0.963354        -1.461273        -0.215300
 C        -0.281331        -0.160377         0.549591
 O         0.855038        -0.202219         0.923570
 C        -1.248283         1.135429         0.399110
 O        -1.464715         1.118486        -1.042414
 H        -4.426285         0.308100        -2.304144
 H        -4.350895         1.285970        -0.842256
 H        -3.499166         1.959645        -2.291351
 H        -3.005675        -0.942284        -3.226265
 H        -1.156735        -0.976903        -2.958131
 H        -3.171437        -1.930371        -0.777600
 H        -1.173683        -2.260706         0.511896
 H        -0.133043        -1.744083        -0.885282
 H        -2.249614         1.073882         0.798732
 H        -0.742821         2.073222         0.610861
