19
Iteration:  4691
 C        -3.992362         0.730922        -1.581331
 C        -2.516756         0.251712        -1.451084
 C        -1.780772        -0.507594        -2.448588
 C        -2.145360        -1.131850        -1.128629
 C        -1.158612        -1.502616        -0.014256
 C        -0.401387        -0.293784         0.450172
 O         0.588608        -0.308534         1.183433
 C        -0.532052         1.016184        -0.356854
 O        -1.851398         1.389391        -0.855286
 H        -4.383286        -0.134617        -2.170029
 H        -4.524761         0.657409        -0.695047
 H        -4.114613         1.739659        -2.118487
 H        -2.385026        -0.929609        -3.278874
 H        -0.863960        -0.024664        -2.729487
 H        -2.951524        -1.812017        -1.061990
 H        -1.615810        -1.951153         0.911995
 H        -0.456511        -2.292071        -0.538293
 H        -0.119700         1.815380         0.261704
 H         0.124581         0.919626        -1.282720
