19
Iteration:  3636
 C        -3.819847         0.654596        -1.045448
 C        -2.490102         0.258871        -1.464507
 C        -2.296571        -0.653810        -2.629834
 C        -2.074880        -1.188346        -1.269022
 C        -0.661345        -1.339081        -0.445729
 C        -0.355233        -0.189679         0.424879
 O         0.036343        -0.251527         1.627072
 C        -0.636948         1.165322        -0.148851
 O        -1.464450         1.185458        -1.362756
 H        -4.412082        -0.296205        -1.024681
 H        -3.807050         1.086083        -0.071712
 H        -4.226059         1.496020        -1.712947
 H        -3.156679        -1.006408        -3.105597
 H        -1.446066        -0.388157        -3.250886
 H        -2.720023        -1.948336        -0.870018
 H        -0.637007        -2.298133         0.113589
 H         0.124707        -1.469999        -1.236085
 H        -1.030945         1.892186         0.641626
 H         0.352389         1.526476        -0.600027
