19
Iteration:  3655charge 0 multiplicity 1
 C        -3.911590         0.692637        -1.094209
 C        -2.457488         0.203283        -1.465329
 C        -2.310583        -0.685608        -2.632855
 C        -2.009715        -1.131653        -1.092313
 C        -0.706577        -1.275177        -0.536788
 C        -0.444052        -0.150928         0.486828
 O         0.143692        -0.411122         1.574378
 C        -0.768338         1.285636        -0.114279
 O        -1.302307         1.128448        -1.435667
 H        -4.407256        -0.252309        -0.806875
 H        -3.907696         1.384358        -0.288937
 H        -4.423415         1.141131        -1.962335
 H        -3.281630        -1.056462        -3.062827
 H        -1.423472        -0.520981        -3.274896
 H        -2.838019        -1.714907        -0.585275
 H        -0.562524        -2.207943         0.053672
 H         0.158078        -1.041702        -1.219967
 H        -1.409800         1.746161         0.577392
 H         0.117226         1.809958        -0.096847
