19
Iteration:   313
 C        -3.815851         0.575612        -1.184430
 C        -2.486887         0.131298        -1.560694
 C        -2.166043        -0.948475        -2.561887
 C        -2.114839        -1.208379        -1.017005
 C        -1.037991        -1.316175         0.017655
 C        -0.372498         0.060226         0.457923
 O         0.708214         0.127756         1.020784
 C        -1.137816         1.249622        -0.041191
 O        -1.345557         0.982374        -1.411684
 H        -3.840182         0.777783        -0.082893
 H        -4.072321         1.477183        -1.730496
 H        -4.450658        -0.221327        -1.465547
 H        -3.003954        -1.431041        -3.059728
 H        -1.254142        -0.959226        -3.069674
 H        -3.022624        -1.719326        -0.668969
 H        -1.482316        -1.648433         0.953039
 H        -0.341659        -2.144043        -0.329729
 H        -2.024036         1.465008         0.517311
 H        -0.521892         2.156022         0.011634
