19
Iteration:  2024
 C        -3.863697         0.781340        -1.583171
 C        -2.464508         0.191793        -1.517669
 C        -2.236867        -1.026155        -2.488856
 C        -2.217884        -1.154747        -1.000998
 C        -0.929927        -1.233091        -0.120371
 C        -0.348473        -0.119889         0.534055
 O         0.722159        -0.163948         1.096318
 C        -0.950757         1.201467         0.105552
 O        -1.479987         1.168650        -1.220711
 H        -4.007654         1.502044        -2.413656
 H        -4.622799         0.016915        -1.751243
 H        -4.161725         1.273045        -0.620111
 H        -3.086926        -1.439333        -3.029801
 H        -1.384574        -1.141867        -3.102803
 H        -3.076737        -1.653780        -0.497164
 H        -1.250783        -2.100961         0.469333
 H        -0.222142        -1.645380        -0.836451
 H        -1.588859         1.653337         0.867016
 H        -0.126770         1.806376        -0.073848
