19
Iteration:  3464
 C        -3.695062         0.830130        -0.965692
 C        -2.403367         0.193063        -1.593588
 C        -2.531159        -0.860933        -2.642727
 C        -2.018448        -1.241094        -1.160052
 C        -0.602329        -1.292704        -0.522646
 C        -0.485652        -0.220612         0.522549
 O         0.181580        -0.102331         1.567257
 C        -0.959613         1.131292        -0.010917
 O        -1.224928         1.106180        -1.511333
 H        -3.593293         1.929796        -1.003162
 H        -4.520734         0.508143        -1.666827
 H        -3.978954         0.475818         0.062839
 H        -3.581974        -1.077122        -2.636325
 H        -1.975633        -0.904413        -3.504467
 H        -2.762257        -1.794314        -0.591139
 H        -0.111335        -2.189387        -0.075717
 H         0.009726        -0.901496        -1.405273
 H        -1.950237         1.508394         0.358727
 H        -0.303354         1.938893         0.204452
