19
Iteration:   493charge 0 multiplicity 1
 C        -4.004092         0.310697        -1.996564
 C        -2.574157         0.170280        -1.442107
 C        -1.443611        -0.501641        -2.175335
 C        -2.000326        -1.166854        -0.888497
 C        -1.396021        -1.063384         0.419761
 C        -0.261355        -0.147609         0.257861
 O         0.916928        -0.543302         0.373385
 C        -0.755761         1.315070        -0.141021
 O        -2.213288         1.283053        -0.574000
 H        -4.079425         0.641749        -3.062800
 H        -4.708535        -0.563737        -1.868828
 H        -4.413528         1.208744        -1.412515
 H        -1.574022        -1.021531        -3.191241
 H        -0.427735        -0.098986        -2.186960
 H        -2.610540        -2.119438        -1.138476
 H        -2.117206        -0.564015         1.176707
 H        -0.935471        -1.994995         0.847073
 H        -0.834306         1.931467         0.779027
 H        -0.152988         1.769846        -0.978635
