19
Iteration:  4856
 C        -3.949539         0.696515        -1.715097
 C        -2.549200         0.239333        -1.464408
 C        -1.652938        -0.501263        -2.422170
 C        -2.148410        -1.189455        -1.141039
 C        -1.438326        -1.339773         0.235370
 C        -0.297217        -0.260197         0.323507
 O         0.739021        -0.342455         0.947836
 C        -0.600095         1.008398        -0.315374
 O        -1.891050         1.286172        -0.679827
 H        -4.296471         0.063070        -2.561863
 H        -4.606243         0.419581        -0.920975
 H        -4.029888         1.908195        -1.882020
 H        -2.060784        -0.899586        -3.335996
 H        -0.623539        -0.050117        -2.749369
 H        -3.015965        -1.829556        -1.379307
 H        -1.966198        -1.010540         1.106886
 H        -0.979709        -2.363810         0.214947
 H        -0.298592         1.699797         0.531267
 H         0.120623         1.148395        -1.143895
