19
Iteration:  4172charge 0 multiplicity 1
 C        -3.925634         0.645219        -1.542038
 C        -2.498980         0.272166        -1.483751
 C        -1.604299        -0.548746        -2.447642
 C        -2.166054        -1.166499        -1.189714
 C        -1.357665        -1.372845         0.036548
 C        -0.335292        -0.190512         0.250141
 O         0.496154        -0.279398         1.109164
 C        -0.478178         1.121584        -0.457023
 O        -1.906978         1.170283        -0.541122
 H        -4.560293        -0.180705        -1.870970
 H        -4.230089         1.067723        -0.548476
 H        -4.155552         1.403952        -2.299843
 H        -2.035869        -0.668775        -3.403141
 H        -0.501849        -0.403966        -2.548912
 H        -2.894768        -1.864976        -1.496978
 H        -1.908332        -1.519547         0.944246
 H        -0.651407        -2.232272        -0.101710
 H        -0.019044         1.976886        -0.143944
 H         0.095533         1.072968        -1.429960
