19
Iteration:  3269charge 0 multiplicity 1
 C        -4.046758         0.542268        -1.876296
 C        -2.566313         0.269150        -1.407522
 C        -1.699624        -0.494242        -2.439287
 C        -2.147612        -1.208520        -1.124563
 C        -1.310941        -1.230430         0.197768
 C        -0.181711        -0.121439         0.280283
 O         0.776601        -0.548064         0.938803
 C        -0.566378         1.252977        -0.366154
 O        -2.009923         1.206176        -0.460302
 H        -3.964366         0.849605        -2.925439
 H        -4.586849        -0.364674        -1.764581
 H        -4.615555         1.388572        -1.519785
 H        -2.025668        -0.815454        -3.387516
 H        -0.730753         0.004666        -2.569744
 H        -2.910540        -2.069245        -1.026028
 H        -1.772235        -0.896835         1.146082
 H        -0.896076        -2.165233         0.435108
 H        -0.312539         2.060251         0.320206
 H        -0.038675         1.382691        -1.350983
