19
Iteration:    83charge 0 multiplicity 1
 C        -3.844686         0.768962        -0.925450
 C        -2.544416         0.039549        -1.312202
 C        -2.261349        -1.070216        -2.306800
 C        -1.879776        -1.379939        -0.847409
 C        -0.419766        -1.405214        -0.413722
 C        -0.270317        -0.005671         0.236723
 O        -0.328465         0.229954         1.426707
 C        -0.488624         1.196590        -0.619138
 O        -1.624353         1.160867        -1.466484
 H        -4.679764         0.038458        -0.722151
 H        -3.721516         1.350244         0.034542
 H        -4.170386         1.379138        -1.772309
 H        -3.153340        -1.647659        -2.656906
 H        -1.436159        -0.908778        -2.992918
 H        -2.659175        -2.043752        -0.270271
 H        -0.111771        -2.353703         0.111459
 H         0.127810        -1.324056        -1.375421
 H        -0.696870         2.111215         0.021504
 H         0.411901         1.458452        -1.320703
