19
Iteration:  1403charge 0 multiplicity 1
 C        -3.644194         0.992092        -0.978898
 C        -2.438618         0.145428        -1.378553
 C        -2.457813        -0.851512        -2.452331
 C        -1.975982        -1.270592        -1.016371
 C        -0.536148        -1.326863        -0.487469
 C        -0.342641        -0.124184         0.365453
 O        -0.014762        -0.081686         1.541463
 C        -0.971472         1.164939        -0.289005
 O        -1.359468         0.939464        -1.615937
 H        -3.579682         1.952285        -1.475721
 H        -4.539260         0.458007        -1.335200
 H        -3.653161         1.184712         0.141288
 H        -3.364488        -1.354857        -2.837809
 H        -1.719687        -0.650111        -3.216019
 H        -2.624689        -1.988508        -0.417779
 H        -0.239448        -2.068560         0.264408
 H         0.348005        -1.276430        -1.224201
 H        -1.751040         1.342082         0.455135
 H        -0.309948         1.948296        -0.160527
