19
Iteration:  2178
 C        -3.682579         0.757286        -0.887932
 C        -2.398118         0.140376        -1.399093
 C        -2.445895        -1.071424        -2.379045
 C        -1.923718        -1.223028        -0.949652
 C        -0.456732        -1.276449        -0.614003
 C        -0.531719        -0.007404         0.302955
 O        -0.344075        -0.173167         1.493655
 C        -0.592434         1.317214        -0.380362
 O        -1.373028         1.145963        -1.523540
 H        -3.778230         1.784005        -1.319906
 H        -4.604282         0.180662        -1.156046
 H        -3.644682         0.826237         0.254950
 H        -3.473791        -1.341562        -2.643462
 H        -1.679108        -1.150032        -3.121966
 H        -2.508979        -1.744141        -0.195982
 H        -0.218252        -2.042312         0.145350
 H         0.335003        -1.291526        -1.324874
 H        -0.833175         2.101224         0.389910
 H         0.414742         1.503699        -0.708526
