19
Iteration:  2648charge 0 multiplicity 1
 C        -3.904775         0.698535        -1.650582
 C        -2.518867         0.268442        -1.504130
 C        -1.944015        -0.870995        -2.433016
 C        -2.213608        -1.098172        -1.007168
 C        -1.104504        -1.470548         0.096473
 C        -0.256412        -0.170252         0.384165
 O         0.863719        -0.145319         0.853322
 C        -1.026293         1.084829         0.177025
 O        -1.645479         1.348947        -1.149192
 H        -3.967590         1.273351        -2.604852
 H        -4.560818        -0.146259        -1.840102
 H        -4.230597         1.243255        -0.762292
 H        -2.559238        -1.417296        -3.161459
 H        -0.835573        -0.787963        -2.693885
 H        -3.164575        -1.551512        -0.657502
 H        -1.753196        -1.877632         0.874012
 H        -0.380952        -2.300924        -0.237802
 H        -1.874288         1.065610         0.886519
 H        -0.342273         1.982008         0.331123
