19
Iteration:   587charge 0 multiplicity 1
 C        -3.952558         0.615612        -1.913918
 C        -2.579151         0.157765        -1.405108
 C        -1.779945        -0.868049        -2.226071
 C        -2.285578        -1.204233        -0.885112
 C        -1.116550        -1.339428         0.208407
 C        -0.212267        -0.111604         0.277923
 O         0.952816        -0.107958         0.648635
 C        -0.827789         1.187247         0.020871
 O        -1.997611         1.321261        -0.904512
 H        -3.685470         1.205303        -2.765751
 H        -4.467588        -0.272176        -2.297487
 H        -4.549761         1.112020        -1.099065
 H        -2.235819        -1.407937        -3.143248
 H        -0.674048        -0.833361        -2.308620
 H        -3.096256        -1.924742        -0.754551
 H        -1.629650        -1.490871         1.201986
 H        -0.589372        -2.313615        -0.139000
 H        -1.098833         1.535511         1.018560
 H        -0.024689         1.772875        -0.383387
