19
Iteration:  3424
 C        -3.874754         0.893056        -1.127047
 C        -2.519514         0.156652        -1.422447
 C        -2.157843        -0.830835        -2.532681
 C        -2.142831        -1.256871        -1.038279
 C        -0.696189        -1.319211        -0.446483
 C        -0.322172        -0.066149         0.359711
 O         0.281620        -0.269548         1.417557
 C        -0.954477         1.204206        -0.048096
 O        -1.378761         1.100007        -1.425158
 H        -3.659678         1.940088        -1.069250
 H        -4.588145         0.894707        -1.993553
 H        -4.404098         0.587587        -0.267709
 H        -2.943010        -1.376647        -3.108051
 H        -1.246738        -0.516795        -3.178589
 H        -2.912451        -1.928601        -0.744412
 H        -0.527137        -2.177515         0.189868
 H         0.013052        -1.413201        -1.284105
 H        -1.726084         1.319039         0.705907
 H        -0.251753         2.037752         0.098237
