19
Iteration:   155
 C        -3.591732         0.608705        -0.627802
 C        -2.430080         0.064273        -1.399579
 C        -2.492370        -0.993174        -2.497734
 C        -1.982748        -1.397883        -1.051733
 C        -0.567857        -1.269725        -0.434764
 C        -0.416879         0.092417         0.370414
 O        -0.206206         0.354455         1.529628
 C        -0.755500         1.305740        -0.520143
 O        -1.284495         0.826193        -1.679779
 H        -4.534724         0.545683        -1.123401
 H        -3.693842         0.038163         0.271254
 H        -3.491902         1.708496        -0.391295
 H        -3.487243        -1.529767        -2.555335
 H        -1.837605        -0.934465        -3.375245
 H        -2.679519        -1.991532        -0.558238
 H        -0.378380        -2.060093         0.285757
 H         0.161502        -1.325781        -1.229917
 H        -1.315933         2.013998         0.051010
 H         0.127472         1.757861        -0.883381
