19
Iteration:  1804
 C        -3.748355         0.790229        -2.085431
 C        -2.586150         0.194789        -1.377105
 C        -1.859408        -0.853304        -2.159004
 C        -2.414031        -1.149504        -0.710989
 C        -1.216698        -1.465626         0.230567
 C        -0.234496        -0.186722         0.262057
 O         0.956048        -0.222933         0.507077
 C        -0.952996         1.199198         0.116168
 O        -1.825797         1.299067        -0.949868
 H        -3.446055         1.806839        -2.324830
 H        -3.758924         0.325877        -3.026731
 H        -4.507263         0.869392        -1.376372
 H        -2.394098        -1.432049        -2.953196
 H        -0.765285        -0.745633        -2.085162
 H        -3.175057        -1.879539        -0.618743
 H        -1.498696        -1.730856         1.288030
 H        -0.568706        -2.255596        -0.082570
 H        -1.462153         1.482587         1.118556
 H        -0.175920         2.026004        -0.017115
