19
Iteration:  3866charge 0 multiplicity 1
 C        -3.889083         0.696791        -1.548066
 C        -2.460921         0.255081        -1.449456
 C        -2.005226        -0.644329        -2.456717
 C        -2.238176        -1.142184        -1.076695
 C        -1.012141        -1.483933        -0.162382
 C        -0.292194        -0.246833         0.362401
 O         0.684170        -0.385860         1.138954
 C        -0.966514         1.133606         0.113374
 O        -1.573001         1.385123        -1.208635
 H        -4.747602         0.035058        -1.534016
 H        -4.100210         1.427070        -0.791426
 H        -3.941410         1.348725        -2.464109
 H        -2.695171        -0.765811        -3.242592
 H        -0.953623        -0.499517        -2.744816
 H        -3.153684        -1.734587        -0.803396
 H        -1.391098        -1.873888         0.798608
 H        -0.119300        -1.930111        -0.731150
 H        -1.872151         1.289975         0.834625
 H        -0.237176         1.923942         0.561806
