19
Iteration:  2454
 C        -3.990117         0.731026        -1.652273
 C        -2.507087         0.231798        -1.544620
 C        -1.684402        -0.775274        -2.289803
 C        -2.306576        -1.111287        -0.894069
 C        -1.158459        -1.472009         0.210847
 C        -0.331867        -0.248644         0.373223
 O         0.848812        -0.157181         0.549412
 C        -1.164276         1.193388         0.228223
 O        -1.522569         1.223048        -1.168678
 H        -4.117361         1.174726        -2.709737
 H        -4.669383        -0.156042        -1.582069
 H        -4.273254         1.508804        -0.901785
 H        -2.053992        -1.375739        -3.146555
 H        -0.617253        -0.596446        -2.269143
 H        -3.239624        -1.733189        -0.892056
 H        -1.616995        -1.681461         1.227579
 H        -0.456412        -2.188178        -0.172438
 H        -1.930742         1.475389         0.975801
 H        -0.331349         1.964585         0.343359
