19
Iteration:   717charge 0 multiplicity 1
 C        -3.884034         0.727676        -1.365922
 C        -2.444894         0.237565        -1.514881
 C        -2.221884        -0.993052        -2.393247
 C        -2.145498        -1.173118        -0.897599
 C        -0.765407        -1.232996        -0.329804
 C        -0.371503        -0.058874         0.485945
 O         0.616511        -0.023791         1.177968
 C        -1.196100         1.162864         0.036270
 O        -1.353639         1.006101        -1.409388
 H        -4.288927         1.130495        -2.309634
 H        -4.562706        -0.084318        -1.011828
 H        -3.998642         1.649295        -0.668812
 H        -3.059658        -1.399898        -3.001457
 H        -1.197608        -1.059089        -2.931866
 H        -2.891093        -1.625547        -0.240201
 H        -0.632112        -2.261490         0.085563
 H        -0.094707        -1.298043        -1.173077
 H        -2.172247         1.084924         0.599074
 H        -0.754825         2.139791         0.263517
