19
Iteration:  2306charge 0 multiplicity 1
 C        -3.903368         0.723869        -1.267892
 C        -2.499891         0.198661        -1.469487
 C        -2.424581        -0.957987        -2.447460
 C        -2.091603        -1.148268        -0.946691
 C        -0.633528        -1.222473        -0.438658
 C        -0.354506        -0.064578         0.528561
 O         0.333576        -0.181339         1.565875
 C        -0.866739         1.246431        -0.221631
 O        -1.346985         1.048747        -1.555892
 H        -3.993256         1.779884        -1.519579
 H        -4.574850         0.091424        -1.806726
 H        -4.240031         0.634660        -0.213668
 H        -3.362164        -1.321883        -2.855882
 H        -1.670322        -0.887704        -3.158660
 H        -2.742836        -1.791818        -0.314981
 H        -0.440617        -2.123766         0.192773
 H         0.175836        -1.189466        -1.286892
 H        -1.581422         1.899521         0.298911
 H         0.122814         1.750924        -0.171524
