19
Iteration:  3811charge 0 multiplicity 1
 C        -3.932988         0.735694        -1.279114
 C        -2.510919         0.212235        -1.499399
 C        -1.971031        -0.530580        -2.615669
 C        -2.121217        -1.224429        -1.256007
 C        -1.112979        -1.435740        -0.136756
 C        -0.282517        -0.186945         0.413886
 O         0.576177        -0.354372         1.344573
 C        -0.803944         1.173620        -0.122810
 O        -1.598584         1.264800        -1.210607
 H        -4.583578         0.010346        -1.762494
 H        -4.098471         0.815252        -0.240020
 H        -4.193855         1.652845        -1.885109
 H        -2.450142        -1.162178        -3.364713
 H        -1.068874        -0.117482        -2.913406
 H        -3.046219        -1.866205        -1.123876
 H        -1.565826        -1.853978         0.814060
 H        -0.229579        -2.208241        -0.230197
 H        -1.540170         1.437799         0.754671
 H         0.152464         1.829704        -0.081352
