19
Iteration:  3940
 C        -3.727495         0.998165        -1.611020
 C        -2.476378         0.193915        -1.454947
 C        -2.110706        -0.759934        -2.501678
 C        -2.224985        -1.247928        -1.058291
 C        -1.002045        -1.392604        -0.208785
 C        -0.397508        -0.133672         0.428907
 O         0.720203        -0.127562         0.845046
 C        -1.268627         1.047819         0.385177
 O        -1.318382         1.022759        -1.061845
 H        -4.506473         0.498665        -2.266045
 H        -4.265754         1.250648        -0.695353
 H        -3.438839         2.062823        -2.056303
 H        -2.945431        -1.025968        -3.081686
 H        -1.088673        -0.695348        -2.976854
 H        -3.109299        -1.868161        -0.617062
 H        -1.232458        -1.905380         0.735751
 H        -0.185926        -1.874298        -0.769734
 H        -2.237107         0.868808         0.856532
 H        -0.722028         1.921764         0.743223
