19
Iteration:   273charge 0 multiplicity 1
 C        -3.919822         0.804557        -1.317821
 C        -2.596462         0.047452        -1.467249
 C        -2.181301        -1.090000        -2.381101
 C        -2.106547        -1.264510        -0.878553
 C        -0.695967        -1.373077        -0.189117
 C        -0.195577        -0.042087         0.388238
 O         0.514680         0.059145         1.365982
 C        -0.918043         1.305586        -0.266640
 O        -1.654319         1.096579        -1.496383
 H        -4.557191         0.524947        -0.481449
 H        -3.657763         1.860437        -1.143878
 H        -4.545683         0.805589        -2.283856
 H        -3.000174        -1.686583        -2.863302
 H        -1.269628        -0.763524        -2.870314
 H        -2.821400        -1.918047        -0.501450
 H        -0.801482        -2.120038         0.599582
 H         0.140509        -1.655153        -0.863436
 H        -1.602269         1.760790         0.533513
 H        -0.100578         2.077087        -0.532736
