19
Iteration:  1074
 C        -3.927283         0.661466        -1.550646
 C        -2.513907         0.155903        -1.508003
 C        -1.832787        -0.896406        -2.495140
 C        -2.172663        -1.218650        -1.043416
 C        -1.287543        -1.269923         0.213962
 C        -0.273749        -0.099279         0.391769
 O         0.875864        -0.247565         0.813580
 C        -0.923280         1.262227         0.086587
 O        -1.706450         1.251974        -1.158515
 H        -3.906504         1.509838        -2.316339
 H        -4.635931        -0.100499        -1.986014
 H        -4.191641         0.960666        -0.499047
 H        -2.445848        -1.327397        -3.298690
 H        -0.812108        -0.492892        -2.807112
 H        -2.971468        -1.930082        -1.094190
 H        -2.002336        -1.043632         1.065710
 H        -0.890220        -2.285036         0.509078
 H        -1.354573         1.494854         1.058229
 H        -0.127466         2.029963        -0.104483
