19
Iteration:  4362
 C        -3.810532         0.576490        -1.905488
 C        -2.501566         0.292626        -1.368121
 C        -1.542468        -0.645878        -2.272059
 C        -2.287428        -1.152895        -1.045938
 C        -1.424378        -1.343821         0.194212
 C        -0.370656        -0.235322         0.289832
 O         0.772305        -0.509681         0.626416
 C        -0.662152         1.288902        -0.088902
 O        -1.976008         1.382724        -0.633822
 H        -4.255816        -0.218507        -2.499663
 H        -4.617400         0.857819        -1.134446
 H        -3.837733         1.446185        -2.621971
 H        -1.904885        -0.793473        -3.247466
 H        -0.453502        -0.725558        -2.189855
 H        -3.076859        -1.952198        -1.190721
 H        -2.030445        -1.367392         1.118167
 H        -0.703734        -2.175115         0.431086
 H        -0.575741         1.911679         0.822959
 H         0.084112         1.715880        -0.844207
