19
Iteration:   702
 C        -3.779027         0.769795        -1.332910
 C        -2.457084         0.082292        -1.598442
 C        -2.289960        -1.064372        -2.540699
 C        -2.147951        -1.222804        -1.007056
 C        -0.814942        -1.315049        -0.197213
 C        -0.362033         0.013301         0.481672
 O         0.670478         0.027207         1.108522
 C        -1.222382         1.187703         0.126548
 O        -1.355747         1.121677        -1.314217
 H        -4.193034         1.333928        -2.224647
 H        -4.518709        -0.001426        -1.059723
 H        -3.705703         1.421566        -0.515419
 H        -3.265068        -1.381226        -2.921701
 H        -1.481859        -1.103795        -3.205379
 H        -3.015770        -1.768980        -0.656514
 H        -0.856677        -1.942155         0.651388
 H         0.056475        -1.576137        -0.788686
 H        -2.221106         1.141999         0.569073
 H        -0.749246         2.120248         0.413401
