19
Iteration:  2097
 C        -3.724159         0.766966        -1.038171
 C        -2.419878         0.172363        -1.494478
 C        -2.372514        -0.990637        -2.532563
 C        -2.098153        -1.230183        -1.054197
 C        -0.704869        -1.441115        -0.406641
 C        -0.422713        -0.083841         0.532880
 O         0.210921        -0.139774         1.539081
 C        -0.861758         1.352617        -0.233391
 O        -1.368470         1.175317        -1.585764
 H        -4.211302         1.470574        -1.815022
 H        -4.465570        -0.042243        -0.804618
 H        -3.704341         1.409258        -0.120986
 H        -3.350011        -1.399331        -2.983104
 H        -1.536350        -1.128501        -3.216464
 H        -2.951914        -1.570594        -0.477497
 H        -0.551640        -2.301507         0.218043
 H         0.046446        -1.348965        -1.231529
 H        -1.470419         1.988480         0.479276
 H         0.148424         1.830334        -0.422112
