19
Iteration:  2962
 C        -3.853776         0.740903        -1.225319
 C        -2.506877         0.151991        -1.447955
 C        -2.284546        -0.948792        -2.467902
 C        -2.104674        -1.176381        -0.951299
 C        -0.680388        -1.268084        -0.447998
 C        -0.339031        -0.095180         0.384985
 O         0.129795        -0.157802         1.534142
 C        -0.717476         1.236145        -0.220528
 O        -1.414989         1.128650        -1.435432
 H        -4.128258         1.613257        -1.828163
 H        -4.530069        -0.096517        -1.257142
 H        -3.842143         1.137625        -0.181848
 H        -3.103882        -1.403733        -3.032484
 H        -1.456617        -0.844582        -3.197696
 H        -2.863780        -1.650685        -0.321302
 H        -0.463654        -2.199310         0.003835
 H        -0.006400        -1.176616        -1.315446
 H        -1.260540         1.760485         0.611025
 H         0.237408         1.669213        -0.381752
