19
Iteration:  2589
 C        -3.931336         0.510344        -1.731924
 C        -2.460002         0.184140        -1.529165
 C        -1.678910        -0.729469        -2.426897
 C        -2.203270        -1.170040        -1.021690
 C        -1.385199        -1.251988         0.291938
 C        -0.329047        -0.139342         0.442171
 O         0.849751        -0.298935         0.426185
 C        -0.965909         1.259306         0.334195
 O        -1.631971         1.277746        -0.991397
 H        -4.182761         1.162244        -2.560456
 H        -4.543202        -0.422190        -1.651029
 H        -4.254695         1.139282        -0.867491
 H        -2.347268        -1.103789        -3.266442
 H        -0.601724        -0.611280        -2.591427
 H        -3.069941        -1.857703        -1.093638
 H        -2.162416        -1.152348         1.078439
 H        -0.886412        -2.236554         0.393537
 H        -1.624406         1.551027         1.157899
 H        -0.165345         1.947732         0.284219
