19
Iteration:  4252charge 0 multiplicity 1
 C        -4.032338         0.712249        -1.808364
 C        -2.500050         0.287296        -1.525993
 C        -1.797639        -0.723307        -2.381487
 C        -2.311874        -1.135160        -0.991365
 C        -1.123731        -1.423686        -0.078846
 C        -0.245242        -0.320050         0.369470
 O         0.766233        -0.375244         1.074881
 C        -0.732470         1.133300        -0.064434
 O        -1.833248         1.460839        -0.857374
 H        -4.353616        -0.057651        -2.545632
 H        -4.499094         0.561397        -0.764236
 H        -4.026057         1.727044        -2.190240
 H        -2.287309        -1.128604        -3.294789
 H        -0.727380        -0.587169        -2.514725
 H        -3.217186        -1.707772        -0.785097
 H        -1.473474        -1.665739         0.955874
 H        -0.457939        -2.220422        -0.521403
 H        -0.896499         1.811125         0.805910
 H         0.114716         1.565793        -0.681110
