19
Iteration:  4517charge 0 multiplicity 1
 C        -3.996019         0.634482        -1.908798
 C        -2.552748         0.301017        -1.511306
 C        -1.720227        -0.657414        -2.418975
 C        -2.174100        -1.093510        -1.083419
 C        -1.327904        -1.297971         0.203721
 C        -0.206707        -0.280505         0.413186
 O         0.936407        -0.543321         0.782272
 C        -0.777772         1.168805         0.048368
 O        -1.951183         1.371138        -0.764727
 H        -4.602510        -0.196397        -2.343071
 H        -4.506475         1.099390        -1.107326
 H        -3.728601         1.498853        -2.660401
 H        -2.315794        -0.832728        -3.275374
 H        -0.638241        -0.525228        -2.500225
 H        -2.982759        -1.786897        -1.038135
 H        -1.889834        -0.923696         1.076757
 H        -0.906898        -2.253716         0.208691
 H        -1.056040         1.708283         0.996822
 H         0.118713         1.691313        -0.385903
