19
Iteration:  1628
 C        -3.901268         1.051463        -1.522819
 C        -2.567158         0.144532        -1.508820
 C        -2.345654        -1.091226        -2.378559
 C        -2.184545        -1.225896        -0.925443
 C        -0.743554        -1.138842        -0.437611
 C        -0.320984        -0.140039         0.593765
 O         0.647157        -0.187401         1.347787
 C        -1.052730         1.223619         0.014449
 O        -1.385822         0.965578        -1.377526
 H        -3.443977         1.943086        -2.119807
 H        -4.838814         0.544737        -1.942848
 H        -4.198353         1.315616        -0.424238
 H        -3.121739        -1.702942        -2.770766
 H        -1.437869        -1.217734        -2.978540
 H        -2.900539        -1.813797        -0.275668
 H        -0.306061        -2.147564        -0.219910
 H        -0.163348        -0.714986        -1.213059
 H        -1.911101         1.431263         0.590098
 H        -0.274705         2.049027        -0.021351
