19
Iteration:  1423charge 0 multiplicity 1
 C        -3.688009         1.005899        -0.874532
 C        -2.488975         0.148979        -1.401114
 C        -2.520753        -1.020455        -2.413935
 C        -1.885113        -1.287217        -1.027704
 C        -0.402344        -1.284553        -0.602638
 C        -0.425340        -0.077500         0.370055
 O        -0.243552        -0.140421         1.557616
 C        -0.792604         1.273215        -0.307886
 O        -1.299370         0.977219        -1.593866
 H        -3.309722         1.932887        -1.196097
 H        -4.529994         0.698915        -1.461702
 H        -3.810543         0.986901         0.210748
 H        -3.455608        -1.556899        -2.405118
 H        -2.001091        -0.871436        -3.345564
 H        -2.399541        -1.971331        -0.282901
 H        -0.240996        -2.298507        -0.062408
 H         0.364193        -1.136787        -1.474699
 H        -1.466223         1.952090         0.324710
 H         0.142784         1.797822        -0.474890
