19
Iteration:  2520charge 0 multiplicity 1
 C        -3.819823         0.845128        -2.092501
 C        -2.577193         0.194029        -1.409978
 C        -1.729834        -0.941484        -2.140942
 C        -2.370673        -1.158747        -0.746919
 C        -1.201971        -1.414262         0.208130
 C        -0.308659        -0.152235         0.368514
 O         0.955112        -0.101851         0.323129
 C        -1.029299         1.065180         0.313689
 O        -1.776582         1.257219        -0.929960
 H        -3.339965         1.871220        -2.167252
 H        -4.176727         0.388261        -3.020834
 H        -4.719854         1.130319        -1.484225
 H        -2.161258        -1.494137        -2.922341
 H        -0.626735        -0.844975        -2.237451
 H        -3.150737        -1.939941        -0.672265
 H        -1.384026        -1.848388         1.277772
 H        -0.615563        -2.143404        -0.305014
 H        -1.717415         1.223011         1.119471
 H        -0.324552         1.957093         0.271864
