19
Iteration:  3389
 C        -3.994586         0.622885        -1.439133
 C        -2.509316         0.228038        -1.498270
 C        -2.253463        -0.788417        -2.558487
 C        -2.145205        -1.067084        -1.029050
 C        -0.810533        -1.419271        -0.309280
 C        -0.297944        -0.239665         0.443099
 O         0.496181        -0.250271         1.387146
 C        -0.736835         1.173930        -0.042553
 O        -1.521085         1.382437        -1.226697
 H        -4.034215         1.676943        -1.256169
 H        -4.535415         0.319488        -2.366706
 H        -4.508350         0.193245        -0.587229
 H        -3.150127        -1.275246        -3.009471
 H        -1.324720        -0.719191        -3.052759
 H        -3.009186        -1.650552        -0.715877
 H        -0.880001        -2.292144         0.387663
 H        -0.077883        -1.744895        -1.116329
 H        -1.191064         1.806176         0.724140
 H         0.272787         1.485954        -0.201187
