19
Iteration:  4787charge 0 multiplicity 1
 C        -4.006284         0.752242        -1.734283
 C        -2.509292         0.288789        -1.376714
 C        -1.810584        -0.479566        -2.441868
 C        -2.186656        -1.186372        -1.105385
 C        -1.182616        -1.551040        -0.005533
 C        -0.250710        -0.351620         0.321964
 O         0.648753        -0.255521         1.192744
 C        -0.573558         1.018574        -0.301686
 O        -1.891193         1.369156        -0.783286
 H        -4.567658        -0.190658        -1.949327
 H        -4.545844         1.284722        -0.887404
 H        -3.991310         1.408719        -2.640440
 H        -2.373727        -0.864448        -3.315094
 H        -0.835372        -0.216688        -2.689274
 H        -3.033723        -1.868283        -1.033956
 H        -1.733462        -1.830810         0.846142
 H        -0.466732        -2.277593        -0.270702
 H        -0.337730         1.778421         0.396184
 H         0.181393         1.101834        -1.102282
