19
Iteration:  4453charge 0 multiplicity 1
 C        -3.804275         0.624350        -2.070906
 C        -2.408360         0.330374        -1.420445
 C        -1.566195        -0.669615        -2.237375
 C        -2.258529        -1.148870        -1.021079
 C        -1.405394        -1.295704         0.274234
 C        -0.296739        -0.245890         0.370723
 O         0.878139        -0.536432         0.495409
 C        -0.751987         1.245288        -0.088961
 O        -2.131099         1.347045        -0.458670
 H        -4.245069        -0.187935        -2.703290
 H        -4.493389         0.850430        -1.298138
 H        -3.651449         1.600660        -2.698889
 H        -1.940779        -0.845861        -3.254469
 H        -0.443895        -0.590169        -2.193676
 H        -3.071369        -1.819465        -1.170322
 H        -2.151000        -1.241404         1.109021
 H        -1.133940        -2.281614         0.444200
 H        -0.632463         2.119112         0.653625
 H        -0.110155         1.373614        -0.976536
