19
Iteration:  4648
 C        -3.963218         0.707606        -1.536021
 C        -2.521693         0.297491        -1.453464
 C        -1.771070        -0.568086        -2.540248
 C        -2.103310        -1.147104        -1.235854
 C        -1.296423        -1.335656         0.019716
 C        -0.226990        -0.197941         0.238753
 O         0.483674        -0.359899         1.222016
 C        -0.468877         1.087865        -0.414572
 O        -1.867318         1.168744        -0.627488
 H        -4.541006        -0.165607        -1.923097
 H        -4.217105         1.046837        -0.598986
 H        -4.112872         1.586393        -2.301092
 H        -2.302272        -0.918801        -3.462834
 H        -0.762883        -0.255955        -2.849305
 H        -2.784937        -1.958732        -1.297678
 H        -1.956891        -1.347396         0.963728
 H        -0.647073        -2.251528         0.331738
 H        -0.280065         1.974627         0.200618
 H         0.138972         1.245045        -1.332069
