19
Iteration:  1176charge 0 multiplicity 1
 C        -3.625060         0.751183        -2.195757
 C        -2.374604         0.140358        -1.360084
 C        -1.701229        -0.987508        -2.148113
 C        -2.339696        -1.304112        -0.785614
 C        -1.380199        -1.288088         0.459925
 C        -0.385101        -0.107891         0.348951
 O         0.761337        -0.114828        -0.118634
 C        -1.016434         1.242408         0.510109
 O        -1.731059         1.259102        -0.767962
 H        -3.236684         1.267557        -3.040698
 H        -4.317843        -0.002419        -2.557376
 H        -4.120001         1.544863        -1.608779
 H        -2.183321        -1.204810        -3.114936
 H        -0.635134        -1.030168        -2.247745
 H        -3.237946        -1.995890        -0.729603
 H        -1.938517        -1.269616         1.467169
 H        -0.836388        -2.228357         0.441380
 H        -1.682085         1.330255         1.375962
 H        -0.239158         1.959586         0.389723
