19
Iteration:  2304charge 0 multiplicity 1
 C        -3.919847         0.711528        -1.245068
 C        -2.487056         0.200374        -1.467591
 C        -2.426061        -0.939804        -2.428613
 C        -2.085060        -1.142398        -0.954696
 C        -0.616860        -1.222284        -0.427543
 C        -0.385996        -0.065172         0.538604
 O         0.319232        -0.182392         1.553103
 C        -0.866089         1.234354        -0.233493
 O        -1.328613         1.047717        -1.572140
 H        -4.020147         1.754734        -1.571280
 H        -4.597860         0.111825        -1.794523
 H        -4.232135         0.676876        -0.218339
 H        -3.372862        -1.292755        -2.842070
 H        -1.632010        -0.867750        -3.154582
 H        -2.712026        -1.810603        -0.298420
 H        -0.363625        -2.134749         0.137388
 H         0.132403        -1.217733        -1.283783
 H        -1.555709         1.869361         0.272247
 H         0.135138         1.774399        -0.156735
