19
Iteration:  2451
 C        -3.996828         0.753469        -1.639298
 C        -2.517017         0.193206        -1.526724
 C        -1.684734        -0.754452        -2.287951
 C        -2.255010        -1.104984        -0.888621
 C        -1.170114        -1.504143         0.207561
 C        -0.344760        -0.251670         0.367171
 O         0.829950        -0.151378         0.568012
 C        -1.157853         1.199346         0.207373
 O        -1.516364         1.228296        -1.192703
 H        -4.115706         1.174540        -2.640041
 H        -4.684924        -0.127410        -1.492286
 H        -4.323621         1.517690        -0.916076
 H        -2.089566        -1.347513        -3.179136
 H        -0.602382        -0.569547        -2.239921
 H        -3.162763        -1.712271        -0.908488
 H        -1.599092        -1.683791         1.238329
 H        -0.418165        -2.282177        -0.218574
 H        -1.943010         1.577162         0.881612
 H        -0.362463         1.887511         0.338536
