19
Iteration:  3713charge 0 multiplicity 1
 C        -3.795005         1.075995        -1.395278
 C        -2.471893         0.194304        -1.478465
 C        -2.374201        -0.874296        -2.479361
 C        -2.079668        -1.265115        -1.066457
 C        -0.527008        -1.323317        -0.631730
 C        -0.340913        -0.196966         0.422453
 O         0.341736        -0.283893         1.487418
 C        -1.123882         1.057714         0.134654
 O        -1.398758         1.204617        -1.257185
 H        -4.699957         0.441132        -1.352154
 H        -3.807242         1.806854        -0.579256
 H        -3.858954         1.538887        -2.439800
 H        -3.301576        -1.285369        -2.775041
 H        -1.608432        -0.875197        -3.217136
 H        -2.677488        -1.898584        -0.440237
 H        -0.037548        -2.238239        -0.231794
 H         0.047698        -1.234717        -1.595242
 H        -1.989462         1.089395         0.728086
 H        -0.416168         1.930362         0.321982
