19
Iteration:  3905
 C        -3.898941         0.967517        -1.722008
 C        -2.482111         0.257342        -1.519746
 C        -2.064417        -0.848801        -2.489801
 C        -2.240551        -1.162899        -1.009946
 C        -0.962849        -1.378428        -0.249874
 C        -0.348953        -0.233496         0.510180
 O         0.817438        -0.203940         0.961284
 C        -1.141626         1.012412         0.352102
 O        -1.479409         1.210641        -1.060581
 H        -4.761775         0.426511        -2.194358
 H        -4.108201         1.318209        -0.690260
 H        -3.661971         1.870097        -2.352977
 H        -2.886391        -1.274010        -3.159715
 H        -1.108017        -0.838495        -2.951511
 H        -3.163332        -1.678471        -0.604840
 H        -1.094852        -2.198136         0.470831
 H        -0.229832        -1.839731        -0.851308
 H        -1.964652         0.947091         1.039816
 H        -0.554187         1.828159         0.594014
