19
Iteration:  2071
 C        -3.845544         0.866508        -1.163038
 C        -2.558973         0.198236        -1.545606
 C        -2.166231        -0.905000        -2.448012
 C        -2.111313        -1.131692        -0.989230
 C        -0.768707        -1.320044        -0.308667
 C        -0.284854        -0.122346         0.345591
 O         0.313184        -0.098980         1.441613
 C        -0.836879         1.057484        -0.172024
 O        -1.465958         1.094437        -1.477681
 H        -4.310370         1.240309        -2.030921
 H        -4.620362         0.180175        -0.835713
 H        -3.829159         1.651421        -0.449510
 H        -2.866323        -1.432912        -3.076603
 H        -1.228501        -0.851366        -3.044289
 H        -2.898960        -1.748222        -0.562265
 H        -1.053556        -1.950283         0.626581
 H        -0.018294        -1.805279        -1.002478
 H        -1.546352         1.188684         0.635480
 H        -0.126442         1.915661        -0.154275
