19
Iteration:  3793
 C        -3.923707         0.738607        -1.273375
 C        -2.450832         0.225211        -1.491272
 C        -1.987629        -0.665888        -2.576192
 C        -2.067448        -1.103978        -1.150596
 C        -0.973313        -1.521037        -0.150881
 C        -0.342332        -0.286466         0.310792
 O         0.422826        -0.301644         1.269261
 C        -0.844687         1.160249         0.007307
 O        -1.548247         1.342979        -1.269242
 H        -4.727678         0.243161        -1.873342
 H        -4.294922         0.628336        -0.142860
 H        -4.101133         1.757071        -1.570739
 H        -2.747864        -0.971520        -3.308739
 H        -0.973700        -0.361807        -3.026895
 H        -2.785098        -1.901599        -0.949668
 H        -1.547387        -1.798214         0.736278
 H        -0.265413        -2.231391        -0.561210
 H        -1.321509         1.524946         0.864416
 H         0.040124         1.920280        -0.118892
