19
Iteration:   754charge 0 multiplicity 1
 C        -3.977115         0.743900        -1.479704
 C        -2.520434         0.098174        -1.421027
 C        -2.382778        -1.036906        -2.368053
 C        -1.989124        -1.239330        -0.971495
 C        -0.624161        -1.241889        -0.421889
 C        -0.201142        -0.045178         0.396549
 O         0.385527        -0.130334         1.457693
 C        -0.772711         1.250612        -0.120046
 O        -1.637084         1.195127        -1.323635
 H        -4.146144         1.033705        -2.515204
 H        -4.736508         0.013412        -1.236952
 H        -4.073616         1.538962        -0.795119
 H        -3.311285        -1.436096        -2.717037
 H        -1.561615        -1.198645        -2.955444
 H        -2.721864        -1.742304        -0.341632
 H        -0.394297        -2.083898         0.236222
 H         0.180922        -1.151007        -1.294337
 H        -1.426349         1.660652         0.633936
 H         0.008839         2.008432        -0.361520
