19
Iteration:   336
 C        -3.874099         0.596162        -1.287677
 C        -2.499932         0.129625        -1.619339
 C        -2.025170        -1.097019        -2.501938
 C        -2.154123        -1.287448        -0.998740
 C        -1.076340        -1.203029         0.087714
 C        -0.347759         0.058148         0.438070
 O         0.814531        -0.070611         0.886316
 C        -1.200110         1.332046         0.091239
 O        -1.414866         1.175352        -1.373606
 H        -3.701867         1.451629        -0.579379
 H        -4.386022         1.013765        -2.151374
 H        -4.378298        -0.284481        -0.896004
 H        -2.847608        -1.389654        -3.166942
 H        -1.104940        -1.069617        -2.991601
 H        -3.038749        -1.796782        -0.731313
 H        -1.549183        -1.478861         1.015181
 H        -0.257214        -2.048430        -0.082248
 H        -2.078659         1.300029         0.676501
 H        -0.715237         2.322218         0.332968
