19
Iteration:  4193charge 0 multiplicity 1
 C        -3.953988         0.671963        -1.578281
 C        -2.508859         0.291425        -1.517957
 C        -1.685171        -0.577185        -2.491876
 C        -2.214982        -1.219472        -1.185675
 C        -1.218363        -1.357597        -0.019514
 C        -0.236084        -0.267243         0.333490
 O         0.635789        -0.330481         1.219430
 C        -0.609684         1.144190        -0.425171
 O        -1.951120         1.288617        -0.653803
 H        -4.674652         0.007961        -2.045371
 H        -4.332614         1.008036        -0.655071
 H        -4.066843         1.585032        -2.194470
 H        -2.018607        -0.931659        -3.436664
 H        -0.566132        -0.558970        -2.530616
 H        -3.018701        -1.975207        -1.136603
 H        -1.891128        -1.420881         0.819757
 H        -0.886381        -2.403312        -0.017157
 H        -0.281368         1.872250         0.276305
 H         0.086181         1.285751        -1.327737
