19
Iteration:  3948
 C        -3.765041         1.038984        -1.544667
 C        -2.498582         0.229670        -1.504192
 C        -2.043823        -0.796934        -2.523952
 C        -2.196942        -1.209877        -0.984608
 C        -1.015663        -1.401077        -0.193286
 C        -0.435763        -0.194678         0.421430
 O         0.733431        -0.097243         0.845620
 C        -1.241922         1.012706         0.385288
 O        -1.337932         1.056830        -1.094349
 H        -4.491528         0.516135        -2.178882
 H        -4.235536         1.253775        -0.585766
 H        -3.518467         1.951124        -2.053297
 H        -2.859406        -1.070976        -3.255188
 H        -1.044129        -0.921171        -2.911236
 H        -2.983053        -1.940788        -0.863081
 H        -1.370660        -2.109874         0.573151
 H        -0.232674        -1.954453        -0.613081
 H        -2.282868         0.986956         0.613375
 H        -0.732578         1.822053         0.739986
