19
Iteration:   830
 C        -3.875633         0.447265        -0.758488
 C        -2.461569         0.149712        -1.402325
 C        -2.270585        -0.796417        -2.553522
 C        -1.927959        -1.269166        -1.157795
 C        -0.579337        -1.375791        -0.315138
 C        -0.380580        -0.079403         0.346038
 O        -0.253001         0.041413         1.552798
 C        -0.438837         1.226426        -0.579352
 O        -1.517040         1.291165        -1.456545
 H        -4.102453         1.530015        -0.904526
 H        -4.657431        -0.191406        -1.225685
 H        -3.859253         0.174115         0.329940
 H        -3.061783        -1.341202        -2.994142
 H        -1.406767        -0.669327        -3.082903
 H        -2.752628        -1.913016        -0.793725
 H        -0.797345        -2.100031         0.456169
 H         0.245807        -1.917129        -0.941746
 H        -0.435629         2.120420         0.057543
 H         0.524766         1.402167        -1.231861
