19
Iteration:  1266charge 0 multiplicity 1
 C        -3.876514         0.660338        -1.831237
 C        -2.501004         0.204967        -1.488009
 C        -1.835293        -0.890547        -2.311595
 C        -2.235957        -1.199883        -0.875170
 C        -1.283479        -1.267108         0.201256
 C        -0.330488        -0.071243         0.326784
 O         0.824759        -0.351364         0.514736
 C        -0.917543         1.256636         0.268026
 O        -1.653393         1.297119        -0.998776
 H        -3.820194         1.613136        -2.381395
 H        -4.336226        -0.045078        -2.519928
 H        -4.477911         0.820071        -0.995094
 H        -2.226400        -1.331057        -3.252528
 H        -0.723035        -0.835232        -2.422122
 H        -3.045952        -1.913098        -0.685562
 H        -1.652155        -1.272373         1.298103
 H        -0.563430        -2.134736         0.223283
 H        -1.680121         1.481092         0.979083
 H        -0.258964         2.198420         0.168431
