19
Iteration:  3971
 C        -3.756158         0.957182        -1.462020
 C        -2.494280         0.293981        -1.637921
 C        -1.921414        -0.803381        -2.498536
 C        -2.203053        -1.205608        -1.038727
 C        -1.112757        -1.585070        -0.103950
 C        -0.391670        -0.199962         0.482789
 O         0.783102        -0.152541         0.882222
 C        -1.233228         1.033419         0.230315
 O        -1.458213         1.230296        -1.137136
 H        -4.669340         0.358338        -1.649013
 H        -3.820829         1.192050        -0.418234
 H        -3.887747         1.945695        -1.978275
 H        -2.518093        -1.180779        -3.300241
 H        -0.839385        -0.602715        -2.772268
 H        -3.259027        -1.306914        -0.649610
 H        -1.353723        -2.202719         0.769448
 H        -0.372514        -2.121860        -0.624018
 H        -2.202715         0.933305         0.655312
 H        -0.721677         1.885677         0.532734
