19
Iteration:  4682
 C        -4.010782         0.731888        -1.539783
 C        -2.564463         0.320625        -1.445947
 C        -1.719681        -0.489371        -2.468381
 C        -2.149189        -1.182095        -1.136507
 C        -1.188937        -1.513016         0.019525
 C        -0.329432        -0.268217         0.429010
 O         0.596515        -0.303373         1.209036
 C        -0.551292         1.012956        -0.422671
 O        -1.872809         1.328258        -0.857884
 H        -4.662999         0.004783        -2.082598
 H        -4.472935         0.852235        -0.586973
 H        -4.190977         1.738618        -2.060743
 H        -2.086298        -0.752331        -3.558512
 H        -0.662086        -0.223008        -2.444519
 H        -3.005148        -1.743796        -1.404062
 H        -1.791683        -2.018915         0.846843
 H        -0.366965        -2.262266        -0.350724
 H        -0.228750         1.954173         0.111939
 H         0.230431         0.733535        -1.129714
