19
Iteration:  1759
 C        -3.948039         0.539240        -1.704274
 C        -2.429915         0.287794        -1.568767
 C        -1.784301        -0.806719        -2.375632
 C        -2.181823        -1.041791        -0.937260
 C        -1.360086        -1.304297         0.325993
 C        -0.305953        -0.203965         0.401016
 O         0.895614        -0.377445         0.634187
 C        -0.912652         1.233390         0.080212
 O        -1.712430         1.342997        -1.090853
 H        -4.209882         1.361803        -2.381825
 H        -4.337802        -0.323315        -2.204481
 H        -4.297401         0.798043        -0.742147
 H        -2.444811        -1.307754        -3.106728
 H        -0.743029        -0.687218        -2.641164
 H        -3.131782        -1.566553        -0.866424
 H        -2.048228        -1.173768         1.216662
 H        -1.022587        -2.308216         0.381331
 H        -1.423472         1.453846         1.079930
 H         0.001706         1.895025         0.062022
