19
Iteration:  1181charge 0 multiplicity 1
 C        -3.600560         0.728034        -2.163087
 C        -2.369676         0.136189        -1.342827
 C        -1.686549        -0.986231        -2.170100
 C        -2.333728        -1.329359        -0.806350
 C        -1.416018        -1.301305         0.469775
 C        -0.353418        -0.082255         0.387434
 O         0.744961        -0.164292        -0.145336
 C        -1.055157         1.280539         0.504998
 O        -1.724284         1.275055        -0.793160
 H        -3.209217         1.360146        -3.028588
 H        -4.438304         0.050668        -2.457740
 H        -4.173243         1.482299        -1.601477
 H        -2.181504        -1.184611        -3.113831
 H        -0.556380        -0.888961        -2.086111
 H        -3.215670        -1.915315        -0.720244
 H        -1.904249        -1.267140         1.446044
 H        -0.736452        -2.193646         0.322192
 H        -1.699676         1.386043         1.402025
 H        -0.245968         2.082260         0.435766
