19
Iteration:  2748
 C        -3.791826         0.787592        -1.172553
 C        -2.434392         0.190574        -1.499889
 C        -2.420135        -0.877894        -2.466753
 C        -2.101741        -1.250730        -1.022399
 C        -0.699647        -1.336482        -0.346904
 C        -0.352950        -0.060924         0.408987
 O         0.335591        -0.088715         1.451753
 C        -0.955340         1.207964        -0.082856
 O        -1.331394         1.057343        -1.540109
 H        -4.119078         1.543191        -1.922222
 H        -4.494253        -0.024733        -1.089168
 H        -3.815255         1.227173        -0.147449
 H        -3.269882        -1.280800        -2.948874
 H        -1.597549        -0.877238        -3.089968
 H        -2.858895        -1.793207        -0.514446
 H        -0.536184        -2.161613         0.417453
 H         0.044277        -1.567373        -1.158440
 H        -1.857733         1.464419         0.379086
 H        -0.298459         2.082225        -0.165125
