19
Iteration:  4800charge 0 multiplicity 1
 C        -4.032898         0.648079        -1.725043
 C        -2.636269         0.315198        -1.469228
 C        -1.765383        -0.526736        -2.436167
 C        -2.212260        -1.100976        -1.096969
 C        -1.155586        -1.399945        -0.004717
 C        -0.283707        -0.244908         0.361510
 O         0.625035        -0.367872         1.174585
 C        -0.486464         1.043337        -0.382444
 O        -1.825578         1.285098        -0.681912
 H        -4.632380        -0.272027        -1.976259
 H        -4.478166         1.089797        -0.867855
 H        -4.211497         1.441682        -2.617256
 H        -2.261582        -0.686912        -3.436750
 H        -0.711191        -0.283368        -2.476469
 H        -2.970361        -1.811563        -1.323550
 H        -1.654276        -1.527267         0.954536
 H        -0.766450        -2.404692        -0.187310
 H        -0.271628         1.711402         0.473506
 H         0.218241         1.289721        -1.204222
