19
Iteration:  1616
 C        -3.788230         1.052691        -1.413433
 C        -2.653272         0.084827        -1.531929
 C        -2.349664        -1.139141        -2.420180
 C        -2.136980        -1.174682        -0.861675
 C        -0.656704        -1.163419        -0.454607
 C        -0.358784        -0.098809         0.531706
 O         0.508613        -0.145442         1.392054
 C        -0.981599         1.127911        -0.005712
 O        -1.422886         0.971534        -1.422691
 H        -3.630041         2.031578        -2.048934
 H        -4.799569         0.683135        -1.814752
 H        -3.889872         1.453284        -0.353373
 H        -3.202176        -1.495569        -2.975493
 H        -1.445824        -0.919813        -2.947517
 H        -2.809834        -1.849230        -0.249724
 H        -0.140881        -2.162775        -0.329630
 H        -0.197290        -0.722250        -1.309903
 H        -1.763705         1.591567         0.576197
 H        -0.201745         1.915744        -0.018439
