19
Iteration:  1345
 C        -3.971724         0.619816        -1.478630
 C        -2.494058         0.254883        -1.459074
 C        -2.197141        -0.859342        -2.454162
 C        -2.221680        -1.146633        -0.883013
 C        -0.908868        -1.361736        -0.184452
 C        -0.319728        -0.132542         0.455992
 O         0.524637        -0.298509         1.308761
 C        -0.728531         1.289042        -0.137033
 O        -1.489323         1.262001        -1.390400
 H        -4.185599         1.210216        -2.368580
 H        -4.629230        -0.199749        -1.263191
 H        -4.037495         1.323559        -0.669930
 H        -3.037606        -1.214592        -3.041080
 H        -1.211607        -0.797661        -2.897249
 H        -3.033302        -1.639661        -0.402336
 H        -0.929825        -2.210705         0.624015
 H         0.009317        -1.574357        -0.867683
 H        -1.353742         1.869313         0.563904
 H         0.133337         1.886837        -0.524058
