19
Iteration:  1816
 C        -3.749361         0.811288        -2.166662
 C        -2.558133         0.187831        -1.418354
 C        -1.930806        -0.965979        -2.203853
 C        -2.325795        -1.147420        -0.737406
 C        -1.183051        -1.372732         0.267063
 C        -0.258658        -0.197706         0.327322
 O         0.968253        -0.179541         0.465398
 C        -0.886336         1.132355         0.218226
 O        -1.860155         1.334079        -0.858801
 H        -3.404024         1.808589        -2.407742
 H        -4.131063         0.291760        -3.005550
 H        -4.742016         0.875537        -1.767967
 H        -2.588463        -1.501007        -2.939234
 H        -0.951511        -0.876429        -2.729337
 H        -3.242535        -1.676748        -0.655990
 H        -1.541476        -1.489397         1.299734
 H        -0.787977        -2.317162        -0.083089
 H        -1.412664         1.264950         1.245380
 H        -0.028639         1.812640         0.061679
