19
Iteration:  3243charge 0 multiplicity 1
 C        -3.921182         0.607417        -1.955346
 C        -2.586596         0.249393        -1.415286
 C        -1.554142        -0.460851        -2.242329
 C        -2.174301        -1.175960        -1.086900
 C        -1.451588        -1.204661         0.265876
 C        -0.197234        -0.243413         0.253615
 O         0.907216        -0.385028         0.740673
 C        -0.646025         1.046041        -0.299390
 O        -2.144256         1.204716        -0.504997
 H        -3.982106         1.207205        -2.909878
 H        -4.608549        -0.256774        -1.853704
 H        -4.315286         1.352301        -1.197914
 H        -1.931049        -0.819226        -3.249357
 H        -0.510363        -0.182522        -2.397924
 H        -2.764384        -2.080598        -1.163602
 H        -1.887174        -0.803699         1.215393
 H        -1.126156        -2.312041         0.443587
 H        -0.388553         1.802894         0.494960
 H        -0.140838         1.187531        -1.220430
