19
Iteration:  1878charge 0 multiplicity 1
 C        -3.920406         0.718227        -1.884670
 C        -2.490742         0.274025        -1.441390
 C        -1.640072        -0.767057        -2.124674
 C        -2.259350        -1.162300        -0.814763
 C        -1.276789        -1.508573         0.335013
 C        -0.419121        -0.250059         0.314819
 O         0.816025        -0.270672         0.357915
 C        -1.014479         1.200818         0.195672
 O        -1.624854         1.376705        -1.078204
 H        -3.927670         1.252031        -2.890902
 H        -4.431327        -0.316434        -2.005949
 H        -4.368292         1.337844        -1.059745
 H        -2.065472        -1.306247        -3.008323
 H        -0.535979        -0.625330        -2.221503
 H        -3.191204        -1.732112        -0.896771
 H        -1.656782        -1.392853         1.420319
 H        -0.658271        -2.401529         0.241487
 H        -1.668186         1.518338         1.006888
 H        -0.110843         1.944449         0.121759
