19
Iteration:  3192charge 0 multiplicity 1
 C        -3.751455         0.604027        -2.041352
 C        -2.528904         0.191742        -1.380496
 C        -1.653228        -0.732792        -2.202818
 C        -2.305432        -1.173884        -0.916725
 C        -1.269394        -1.342956         0.254077
 C        -0.308481        -0.137933         0.220626
 O         0.870564        -0.481887         0.374903
 C        -0.895363         1.327625         0.184988
 O        -1.977940         1.411036        -0.698673
 H        -3.637895         1.650059        -2.376784
 H        -3.967445        -0.054374        -2.823021
 H        -4.584169         0.459051        -1.318101
 H        -1.977408        -1.072761        -3.188470
 H        -0.565624        -0.659404        -2.107947
 H        -3.158632        -1.987678        -0.782196
 H        -1.726896        -1.209393         1.229483
 H        -0.664930        -2.245132         0.242798
 H        -1.170964         1.441768         1.266362
 H        -0.099631         2.014167        -0.227216
