19
Iteration:  3000charge 0 multiplicity 1
 C        -3.959409         0.678942        -1.614512
 C        -2.556231         0.254582        -1.417234
 C        -2.250817        -0.902613        -2.404663
 C        -2.172969        -1.106686        -0.936648
 C        -0.782425        -1.363170        -0.222846
 C        -0.214518        -0.226179         0.401195
 O         0.526732        -0.216914         1.403163
 C        -0.788763         1.212834        -0.106572
 O        -1.537880         1.281361        -1.329095
 H        -4.184383         0.752119        -2.695459
 H        -4.827158         0.015644        -1.253003
 H        -4.199317         1.515362        -0.940118
 H        -3.140612        -1.230591        -3.022857
 H        -1.343469        -0.645095        -2.895974
 H        -2.921300        -1.742777        -0.431836
 H        -0.812573        -2.261135         0.475383
 H        -0.076886        -1.586343        -1.069977
 H        -1.425901         1.564575         0.782085
 H         0.003981         2.048560        -0.348623
