19
Iteration:  3588charge 0 multiplicity 1
 C        -3.867620         0.631396        -0.937539
 C        -2.428056         0.216860        -1.425111
 C        -2.140162        -0.618201        -2.538997
 C        -2.026854        -1.208136        -1.096648
 C        -0.610786        -1.373111        -0.476809
 C        -0.396748        -0.114093         0.380648
 O        -0.209265        -0.325431         1.542540
 C        -0.461996         1.131851        -0.476722
 O        -1.579247         1.306469        -1.292083
 H        -4.645719         0.385258        -1.678163
 H        -4.093314         0.134758         0.064226
 H        -3.823304         1.686659        -0.700665
 H        -2.828707        -1.110715        -3.349292
 H        -1.136376        -0.234392        -2.876042
 H        -2.795044        -1.872914        -0.580642
 H        -0.740128        -2.265335         0.201015
 H         0.202468        -1.635004        -1.268351
 H        -0.606470         1.929665         0.207589
 H         0.429960         1.320026        -1.003831
