19
Iteration:  3568
 C        -3.940917         0.562220        -0.982017
 C        -2.492563         0.240335        -1.379495
 C        -2.229718        -0.757602        -2.558511
 C        -2.005456        -1.139793        -1.144779
 C        -0.661564        -1.358125        -0.538104
 C        -0.334329        -0.171671         0.404188
 O        -0.238455        -0.250294         1.570674
 C        -0.292911         1.180148        -0.316434
 O        -1.491066         1.354783        -1.283707
 H        -4.607666         0.343915        -1.857944
 H        -4.354665        -0.113132        -0.261503
 H        -4.200614         1.545793        -0.584887
 H        -3.217956        -1.122195        -3.067106
 H        -1.405192        -0.618312        -3.285210
 H        -2.804582        -1.925293        -0.841353
 H        -0.506536        -2.389295        -0.106227
 H         0.177024        -1.285837        -1.294254
 H        -0.218807         2.102785         0.203150
 H         0.466686         1.163304        -1.135969
