19
Iteration:  2094charge 0 multiplicity 1
 C        -3.767359         0.796870        -1.062064
 C        -2.440724         0.182042        -1.513174
 C        -2.343738        -1.009891        -2.529837
 C        -2.098426        -1.206376        -1.053606
 C        -0.720331        -1.471619        -0.387892
 C        -0.384533        -0.099747         0.499534
 O         0.230131        -0.134901         1.548252
 C        -0.870755         1.334412        -0.222290
 O        -1.376180         1.188865        -1.571837
 H        -4.333335         1.437128        -1.692215
 H        -4.492252         0.043299        -0.728690
 H        -3.610589         1.375633        -0.180923
 H        -3.240104        -1.478658        -3.037301
 H        -1.520180        -1.123501        -3.252768
 H        -2.944970        -1.565662        -0.513006
 H        -0.541088        -2.320291         0.335422
 H         0.055811        -1.314544        -1.199274
 H        -1.486048         1.934384         0.415021
 H         0.143592         1.871322        -0.377301
