19
Iteration:   522
 C        -3.843829         0.231348        -2.018862
 C        -2.467316         0.298789        -1.372163
 C        -1.507105        -0.556434        -2.258651
 C        -2.201653        -1.163551        -0.974028
 C        -1.564354        -1.104503         0.363464
 C        -0.279814        -0.136681         0.279579
 O         0.906083        -0.316184         0.360949
 C        -0.660329         1.256375        -0.198374
 O        -2.121966         1.175139        -0.339580
 H        -3.782137         0.300132        -3.068348
 H        -4.494485        -0.616397        -1.828463
 H        -4.547792         1.012982        -1.657960
 H        -1.967646        -0.768749        -3.287368
 H        -0.403765        -0.621110        -2.295118
 H        -2.959025        -1.914732        -1.139497
 H        -2.137824        -0.627006         1.083627
 H        -1.067222        -1.993782         0.912794
 H        -0.465617         2.102550         0.474070
 H        -0.244226         1.509977        -1.214281
