19
Iteration:  4135
 C        -4.070291         0.648689        -1.735113
 C        -2.565659         0.278602        -1.449550
 C        -1.839629        -0.448029        -2.503275
 C        -2.167868        -1.126167        -1.135772
 C        -1.162807        -1.447481         0.041654
 C        -0.142361        -0.294790         0.360419
 O         0.647582        -0.350675         1.279209
 C        -0.524864         1.096853        -0.389991
 O        -1.914698         1.303510        -0.712313
 H        -4.479618        -0.208834        -2.286196
 H        -4.641364         0.943079        -0.870517
 H        -3.819163         1.504567        -2.413675
 H        -2.438764        -0.856874        -3.391858
 H        -0.869044        -0.089326        -2.745136
 H        -2.862396        -2.117741        -1.115881
 H        -1.737708        -1.415085         1.036242
 H        -0.758886        -2.431234        -0.140202
 H        -0.177427         2.078978         0.199521
 H        -0.078900         0.888245        -1.414169
