19
Iteration:  3658charge 0 multiplicity 1
 C        -3.923750         0.715616        -1.106631
 C        -2.470200         0.224905        -1.475424
 C        -2.320849        -0.724372        -2.618136
 C        -2.038300        -1.141094        -1.103905
 C        -0.671500        -1.267772        -0.523664
 C        -0.454436        -0.167365         0.486497
 O         0.150508        -0.419169         1.551721
 C        -0.788475         1.299574        -0.075957
 O        -1.279080         1.128670        -1.447376
 H        -4.347712        -0.241148        -0.736696
 H        -3.931754         1.430694        -0.316419
 H        -4.483107         1.189295        -1.984265
 H        -3.184965        -1.026197        -3.087550
 H        -1.403834        -0.559902        -3.170068
 H        -2.696083        -1.734429        -0.479348
 H        -0.495995        -2.242434        -0.027239
 H         0.182937        -1.073891        -1.236277
 H        -1.557321         1.733712         0.627125
 H         0.167492         1.920285        -0.088682
