19
Iteration:  1539charge 0 multiplicity 1
 C        -3.771797         0.678890        -0.778471
 C        -2.547863         0.180958        -1.457507
 C        -2.262942        -0.913695        -2.617402
 C        -2.092907        -1.250814        -1.097738
 C        -0.685184        -1.277853        -0.482110
 C        -0.422501        -0.091531         0.466172
 O        -0.128692        -0.059532         1.654681
 C        -0.452839         1.187204        -0.436905
 O        -1.428276         1.137021        -1.553922
 H        -4.603520         1.213940        -1.436418
 H        -4.345505        -0.104611        -0.162028
 H        -3.606176         1.499089        -0.038731
 H        -3.061111        -1.504614        -3.089964
 H        -1.368627        -0.550043        -3.091920
 H        -2.847534        -1.928747        -0.679850
 H        -0.309237        -2.164877         0.065322
 H         0.007598        -1.102694        -1.257959
 H        -0.521254         2.142969         0.023903
 H         0.563581         1.134600        -0.932868
