19
Iteration:  1339
 C        -3.966085         0.656779        -1.545226
 C        -2.536125         0.255792        -1.414794
 C        -2.167502        -0.825580        -2.390492
 C        -2.228364        -1.162441        -0.883309
 C        -0.893510        -1.391810        -0.154598
 C        -0.262993        -0.161831         0.403217
 O         0.557916        -0.288729         1.302791
 C        -0.719043         1.282242        -0.130994
 O        -1.531966         1.276872        -1.383204
 H        -4.283427         1.127660        -2.502574
 H        -4.689955        -0.202261        -1.464695
 H        -4.325011         1.428834        -0.752366
 H        -2.872408        -1.270876        -3.103544
 H        -1.166385        -0.766566        -2.861223
 H        -3.045497        -1.734945        -0.339659
 H        -1.131542        -2.157319         0.514231
 H        -0.133215        -1.863230        -0.746928
 H        -1.332577         1.859586         0.582290
 H         0.041338         1.964175        -0.479244
