19
Iteration:  2459charge 0 multiplicity 1
 C        -3.963502         0.695918        -1.702247
 C        -2.486443         0.298325        -1.551516
 C        -1.713943        -0.827618        -2.292322
 C        -2.358179        -1.135651        -0.897328
 C        -1.170589        -1.398698         0.200745
 C        -0.339657        -0.195546         0.395224
 O         0.892254        -0.174166         0.519607
 C        -1.141829         1.175338         0.259655
 O        -1.543523         1.225062        -1.120078
 H        -4.135878         1.147807        -2.641328
 H        -4.628012        -0.149358        -1.708033
 H        -4.135811         1.412622        -0.909661
 H        -2.031564        -1.404325        -3.141906
 H        -0.634399        -0.611123        -2.332268
 H        -3.238496        -1.743255        -0.857888
 H        -1.605279        -1.710888         1.127569
 H        -0.505537        -2.257812        -0.106922
 H        -1.951511         1.222955         1.048492
 H        -0.423213         1.971893         0.326735
