19
Iteration:  1940
 C        -3.864852         0.738441        -1.681332
 C        -2.526332         0.142066        -1.483183
 C        -1.830159        -0.923045        -2.445883
 C        -2.321727        -1.305535        -1.064230
 C        -1.320216        -1.214166         0.091114
 C        -0.274570        -0.059564         0.423060
 O         0.900946        -0.223307         0.621425
 C        -0.977409         1.263033         0.327924
 O        -1.553575         1.196856        -1.061203
 H        -3.876448         1.572122        -2.333780
 H        -4.622259         0.100533        -2.115545
 H        -4.214832         1.147835        -0.724205
 H        -2.457576        -1.323760        -3.238093
 H        -0.780880        -0.861050        -2.494297
 H        -3.271791        -1.919892        -0.943383
 H        -1.954838        -1.133187         1.000269
 H        -0.727498        -2.145576         0.313746
 H        -1.713870         1.171506         1.202535
 H        -0.349681         2.150266         0.503191
