19
Iteration:  1069charge 0 multiplicity 1
 C        -3.941856         0.669166        -1.510300
 C        -2.521761         0.140682        -1.467320
 C        -1.821852        -0.891473        -2.536303
 C        -2.116357        -1.208016        -1.035189
 C        -1.262347        -1.236851         0.186999
 C        -0.270089        -0.100316         0.376330
 O         0.812623        -0.272753         0.859503
 C        -0.893878         1.252083         0.046677
 O        -1.703555         1.239701        -1.181980
 H        -3.888412         1.536891        -2.167946
 H        -4.694188        -0.056286        -1.829647
 H        -4.184120         0.997954        -0.505256
 H        -2.420952        -1.472871        -3.253644
 H        -0.888967        -0.509576        -2.821678
 H        -2.994522        -1.899199        -1.113878
 H        -1.965528        -0.975921         0.969357
 H        -0.856345        -2.200617         0.417864
 H        -1.481839         1.521759         1.001682
 H        -0.233539         2.111549        -0.118429
