19
Iteration:  3621charge 0 multiplicity 1
 C        -3.914995         0.724638        -0.956242
 C        -2.492999         0.195329        -1.460684
 C        -2.209230        -0.686919        -2.668834
 C        -1.951756        -1.259518        -1.209903
 C        -0.657953        -1.486212        -0.521027
 C        -0.408451        -0.185568         0.412711
 O        -0.048638        -0.166417         1.577468
 C        -0.534648         1.150943        -0.233043
 O        -1.490385         1.299495        -1.274440
 H        -4.847374         0.144646        -1.147804
 H        -3.938177         0.832945         0.166752
 H        -4.204429         1.673790        -1.396211
 H        -3.027704        -1.131337        -3.404787
 H        -1.326886        -0.425160        -3.296442
 H        -2.866478        -1.855215        -0.888542
 H        -0.746459        -2.422832         0.106210
 H         0.311577        -1.686840        -1.102170
 H        -0.882288         1.810458         0.505936
 H         0.365124         1.532678        -0.576959
