19
Iteration:  2653charge 0 multiplicity 1
 C        -3.925724         0.683379        -1.704249
 C        -2.495316         0.264390        -1.494555
 C        -1.986526        -0.863486        -2.406397
 C        -2.241077        -1.099712        -0.985216
 C        -1.082569        -1.446575         0.001453
 C        -0.262959        -0.178704         0.363384
 O         0.866663        -0.129636         0.891630
 C        -1.028716         1.136173         0.202770
 O        -1.593510         1.304436        -1.138205
 H        -3.956641         1.408055        -2.521123
 H        -4.587515        -0.191783        -1.852486
 H        -4.295343         1.139398        -0.760482
 H        -2.656519        -1.324784        -3.122987
 H        -1.010085        -0.924779        -2.800908
 H        -3.125141        -1.610021        -0.648067
 H        -1.595479        -1.858615         0.936284
 H        -0.459333        -2.286261        -0.169201
 H        -1.850241         1.001900         0.975091
 H        -0.356081         1.948096         0.334897
