19
Iteration:   825
 C        -3.908128         0.425312        -0.795836
 C        -2.505632         0.175018        -1.387648
 C        -2.217505        -0.780439        -2.517598
 C        -1.985296        -1.235642        -1.128985
 C        -0.578406        -1.450742        -0.355312
 C        -0.367588        -0.029811         0.338199
 O        -0.218322         0.034719         1.556780
 C        -0.434976         1.235349        -0.564728
 O        -1.510795         1.263732        -1.473492
 H        -4.141203         1.478934        -0.926894
 H        -4.721554        -0.155362        -1.248876
 H        -3.882303         0.193385         0.302802
 H        -2.945246        -1.407672        -3.118540
 H        -1.211663        -0.556200        -3.056640
 H        -2.701117        -1.823483        -0.545109
 H        -0.794355        -2.186542         0.449523
 H         0.206756        -1.741496        -0.989995
 H        -0.424785         2.134540         0.099147
 H         0.414260         1.266241        -1.193900
