19
Iteration:  3374charge 0 multiplicity 1
 C        -4.003272         0.623867        -1.487434
 C        -2.486675         0.371625        -1.510472
 C        -2.216510        -0.847176        -2.587178
 C        -2.172441        -1.169230        -1.115133
 C        -0.918987        -1.366080        -0.250656
 C        -0.262580        -0.157284         0.482040
 O         0.567079        -0.295843         1.371618
 C        -0.610496         1.174502        -0.073217
 O        -1.647327         1.330354        -1.133511
 H        -4.402243         1.701678        -1.535602
 H        -4.471010         0.251026        -2.388717
 H        -4.532291         0.015621        -0.650250
 H        -3.167094        -1.009761        -3.048894
 H        -1.252258        -0.941883        -3.160298
 H        -2.987809        -1.696748        -0.544145
 H        -1.141315        -2.210484         0.438456
 H         0.044597        -1.658674        -0.808440
 H        -0.785913         1.595870         0.983508
 H         0.219065         1.875626        -0.420842
