19
Iteration:  1090
 C        -3.939822         0.618756        -1.806927
 C        -2.485372         0.215040        -1.534289
 C        -1.823668        -0.797533        -2.388103
 C        -2.270817        -1.245494        -0.931793
 C        -1.314061        -1.336386         0.289385
 C        -0.268439        -0.172524         0.432251
 O         0.928146        -0.165229         0.613236
 C        -0.900903         1.186277         0.151749
 O        -1.669838         1.300804        -1.043463
 H        -4.033147         1.502269        -2.375823
 H        -4.521115        -0.208361        -2.142412
 H        -4.350814         0.815492        -0.834536
 H        -2.395426        -1.256483        -3.204156
 H        -0.785159        -0.807449        -2.486290
 H        -3.254361        -1.805514        -0.856213
 H        -1.999788        -1.294598         1.199094
 H        -0.777386        -2.264730         0.216379
 H        -1.615036         1.594272         0.903116
 H        -0.160514         1.974578         0.065777
