19
Iteration:  2978
 C        -3.997659         0.742411        -1.376657
 C        -2.505137         0.269247        -1.515655
 C        -2.268410        -0.915808        -2.361309
 C        -2.085873        -1.156042        -0.906877
 C        -0.657251        -1.377683        -0.422799
 C        -0.313146        -0.093930         0.424522
 O         0.294216        -0.246602         1.495055
 C        -0.719455         1.234622        -0.140556
 O        -1.477055         1.213373        -1.425636
 H        -4.300532         1.163241        -2.360252
 H        -4.765754        -0.090574        -1.302726
 H        -4.284686         1.297849        -0.467826
 H        -3.116556        -1.340349        -2.933369
 H        -1.334594        -1.027437        -2.898272
 H        -2.875971        -1.847112        -0.536778
 H        -0.631460        -2.189336         0.387817
 H         0.138451        -1.556619        -1.183232
 H        -1.336107         1.904586         0.510116
 H         0.181407         1.818256        -0.565294
