19
Iteration:  1022
 C        -3.933511         0.626184        -1.244241
 C        -2.478497         0.225402        -1.533352
 C        -2.148308        -0.823223        -2.561497
 C        -2.160302        -1.173139        -1.053855
 C        -1.026630        -1.479321        -0.131205
 C        -0.337538        -0.151048         0.455905
 O         0.567252        -0.004494         1.296406
 C        -0.842424         1.205645        -0.147251
 O        -1.440606         1.208786        -1.381140
 H        -4.151622         1.362406        -1.946218
 H        -4.491537        -0.246400        -1.419499
 H        -4.111442         0.989382        -0.237139
 H        -2.883456        -1.244944        -3.225003
 H        -1.068485        -0.839092        -2.858597
 H        -3.106721        -1.547528        -0.730721
 H        -1.413804        -2.229926         0.624052
 H        -0.261213        -2.033668        -0.689006
 H        -1.308613         1.653261         0.772847
 H         0.089967         1.743702        -0.192600
