19
Iteration:  4344
 C        -3.940398         0.579401        -1.926706
 C        -2.520368         0.272983        -1.444187
 C        -1.634573        -0.550843        -2.252492
 C        -2.251260        -1.156525        -1.013917
 C        -1.379680        -1.332638         0.173893
 C        -0.206597        -0.281538         0.269747
 O         0.883101        -0.541410         0.780974
 C        -0.722526         1.183993        -0.062510
 O        -1.985742         1.446182        -0.770491
 H        -4.428806        -0.317267        -2.324011
 H        -4.463828         0.953898        -1.118866
 H        -4.105631         1.344567        -2.781079
 H        -1.830434        -0.920739        -3.294918
 H        -0.619703        -0.268203        -2.198879
 H        -3.163860        -1.762920        -1.046501
 H        -1.937558        -0.973793         1.093617
 H        -1.087810        -2.344459         0.174435
 H        -0.813769         1.609450         0.991560
 H         0.145160         1.652908        -0.423930
