19
Iteration:  4805
 C        -4.046570         0.608541        -1.734641
 C        -2.635045         0.323417        -1.503601
 C        -1.755890        -0.519264        -2.429142
 C        -2.217983        -1.080719        -1.110771
 C        -1.193447        -1.341267        -0.002060
 C        -0.279185        -0.225944         0.337823
 O         0.622775        -0.417865         1.177599
 C        -0.434411         1.083859        -0.371258
 O        -1.851655         1.253479        -0.660525
 H        -4.601274        -0.279591        -1.932927
 H        -4.478241         1.078269        -0.790029
 H        -4.147464         1.380838        -2.409433
 H        -2.127174        -0.794300        -3.385915
 H        -0.649805        -0.311203        -2.500531
 H        -2.992862        -1.897280        -1.214768
 H        -1.746531        -1.401931         1.007090
 H        -0.698043        -2.334519        -0.229899
 H        -0.160151         1.825373         0.418783
 H         0.192497         1.211303        -1.289296
