19
Iteration:   696charge 0 multiplicity 1
 C        -3.749150         0.753055        -1.357865
 C        -2.429920         0.101257        -1.586921
 C        -2.331287        -1.050939        -2.585253
 C        -2.114971        -1.290855        -1.048536
 C        -0.836735        -1.329259        -0.131846
 C        -0.334996        -0.006002         0.442878
 O         0.688777         0.065919         1.094160
 C        -1.244173         1.222879         0.148010
 O        -1.395930         1.140933        -1.282907
 H        -4.096533         1.530043        -2.038651
 H        -4.623681         0.116346        -1.109683
 H        -3.595581         1.469690        -0.445813
 H        -3.240207        -1.574670        -2.954183
 H        -1.385982        -1.178720        -3.240377
 H        -2.981539        -1.876625        -0.710622
 H        -1.098502        -2.056091         0.737457
 H        -0.054550        -1.932032        -0.738550
 H        -2.221644         1.280088         0.715777
 H        -0.688166         2.150341         0.390289
