19
Iteration:  3034
 C        -3.948510         0.810213        -1.652025
 C        -2.533892         0.201652        -1.495524
 C        -2.040545        -0.998645        -2.433335
 C        -2.242724        -1.170994        -0.959735
 C        -0.995943        -1.410063        -0.097275
 C        -0.304076        -0.137818         0.422076
 O         0.767989        -0.138885         1.024135
 C        -0.990510         1.230994         0.175325
 O        -1.532094         1.197817        -1.182920
 H        -4.145191         1.194434        -2.650571
 H        -4.805079         0.159840        -1.255145
 H        -3.895338         1.786613        -1.171197
 H        -2.625786        -1.307160        -3.322345
 H        -1.000996        -0.918057        -2.742541
 H        -3.094550        -1.747807        -0.769037
 H        -1.193519        -2.032584         0.774596
 H        -0.151924        -1.951439        -0.617146
 H        -1.799093         1.572462         0.901043
 H        -0.192517         2.028144         0.040558
