19
Iteration:  2296charge 0 multiplicity 1
 C        -3.957177         0.698274        -1.155465
 C        -2.471141         0.213257        -1.463346
 C        -2.395466        -0.881021        -2.388638
 C        -2.020125        -1.164164        -0.956296
 C        -0.583078        -1.246565        -0.388942
 C        -0.475834        -0.089411         0.513861
 O         0.224471        -0.161358         1.490954
 C        -0.822095         1.214353        -0.235536
 O        -1.265739         1.036793        -1.612417
 H        -4.090612         1.620115        -1.738831
 H        -4.686915         0.090835        -1.694287
 H        -4.212142         0.853839        -0.069041
 H        -3.350055        -1.249603        -2.737804
 H        -1.586877        -0.894375        -3.027562
 H        -2.792080        -1.692641        -0.361517
 H        -0.256859        -2.252563        -0.036521
 H         0.087662        -1.063848        -1.342392
 H        -1.590779         1.778478         0.378667
 H         0.026561         1.892728        -0.371333
