19
Iteration:  2641
 C        -3.905649         0.727307        -1.603831
 C        -2.487682         0.254154        -1.534598
 C        -1.864099        -0.861231        -2.473705
 C        -2.168178        -1.135982        -0.958589
 C        -1.131045        -1.471443         0.170809
 C        -0.286575        -0.206140         0.424976
 O         0.870177        -0.177721         0.794582
 C        -1.047174         1.070300         0.104622
 O        -1.705610         1.387991        -1.153006
 H        -4.064587         1.256084        -2.553207
 H        -4.571740        -0.130157        -1.702638
 H        -4.201248         1.454711        -0.820045
 H        -2.385948        -1.384126        -3.230364
 H        -0.884310        -0.586073        -2.555268
 H        -3.106055        -1.626034        -0.894927
 H        -1.759178        -1.789122         1.074970
 H        -0.496205        -2.162851        -0.254796
 H        -1.860236         1.195240         0.898445
 H        -0.417940         1.922560         0.367123
