19
Iteration:   746charge 0 multiplicity 1
 C        -3.996122         0.742447        -1.476331
 C        -2.538309         0.146857        -1.433697
 C        -2.305685        -1.043797        -2.363647
 C        -2.083299        -1.223298        -0.878946
 C        -0.592176        -1.237576        -0.443110
 C        -0.255095        -0.065764         0.397029
 O         0.444313        -0.103661         1.418249
 C        -0.847372         1.240285        -0.061305
 O        -1.557734         1.150908        -1.370266
 H        -4.218068         1.056055        -2.527120
 H        -4.777058         0.034181        -1.174588
 H        -4.120952         1.628854        -0.902113
 H        -3.215728        -1.429336        -2.847101
 H        -1.408426        -0.975520        -3.018051
 H        -2.696703        -1.824417        -0.215458
 H        -0.431445        -2.175994         0.043324
 H        -0.045261        -1.266122        -1.388240
 H        -1.536929         1.500054         0.758375
 H        -0.129570         2.019209        -0.207163
