19
Iteration:  1167
 C        -3.605842         0.772986        -2.212458
 C        -2.471632         0.156973        -1.451561
 C        -1.709887        -0.976733        -2.089087
 C        -2.334122        -1.185800        -0.735825
 C        -1.300944        -1.308486         0.408318
 C        -0.383976        -0.157511         0.271083
 O         0.777526        -0.062188        -0.044047
 C        -0.992473         1.123188         0.483236
 O        -1.761419         1.251933        -0.735904
 H        -3.178594         1.161126        -3.109613
 H        -4.167460        -0.082158        -2.562538
 H        -4.148860         1.436708        -1.611495
 H        -2.367432        -1.403468        -2.875954
 H        -0.661345        -1.216592        -2.355425
 H        -3.182976        -1.922098        -0.678104
 H        -2.043822        -1.046577         1.323848
 H        -0.856554        -2.297825         0.637807
 H        -1.641297         1.319573         1.300791
 H        -0.233169         1.959512         0.468451
