19
Iteration:  1002charge 0 multiplicity 1
 C        -3.850750         0.747366        -1.324861
 C        -2.467249         0.205469        -1.508163
 C        -2.323422        -0.931419        -2.487257
 C        -2.160078        -1.191532        -0.978944
 C        -0.746962        -1.367963        -0.301952
 C        -0.373609        -0.166784         0.412741
 O         0.378698        -0.055131         1.396589
 C        -0.799749         1.216280        -0.123119
 O        -1.430053         1.160355        -1.395427
 H        -4.129921         1.509645        -2.003652
 H        -4.519442        -0.076037        -1.410704
 H        -3.854300         1.051331        -0.271847
 H        -3.264574        -1.246107        -2.805103
 H        -1.511183        -0.903759        -3.235012
 H        -2.978883        -1.731748        -0.486007
 H        -0.701899        -2.152355         0.425694
 H         0.052339        -1.608627        -0.958194
 H        -1.527520         1.632986         0.646842
 H         0.106497         1.740190        -0.022687
