19
Iteration:  2769
 C        -3.845911         0.725700        -0.992526
 C        -2.505191         0.149499        -1.488931
 C        -2.306012        -0.953377        -2.529483
 C        -2.043079        -1.121258        -1.058755
 C        -0.724039        -1.270061        -0.415051
 C        -0.480827        -0.084338         0.476071
 O         0.194051        -0.156952         1.537762
 C        -0.768055         1.284959        -0.251291
 O        -1.334548         1.069448        -1.548603
 H        -4.491577         1.097281        -1.819720
 H        -4.401641        -0.075001        -0.523034
 H        -3.659625         1.397149        -0.140142
 H        -3.201240        -1.348813        -2.947178
 H        -1.572723        -0.948838        -3.252363
 H        -2.740260        -1.760795        -0.574177
 H        -0.518848        -2.188441         0.188082
 H         0.087131        -1.189531        -1.235971
 H        -1.252468         2.006801         0.368213
 H         0.256966         1.666905        -0.608607
