19
Iteration:  1762
 C        -3.937385         0.544981        -1.723902
 C        -2.443287         0.291793        -1.576166
 C        -1.777515        -0.814763        -2.336836
 C        -2.191145        -1.036174        -0.910040
 C        -1.345984        -1.313789         0.324241
 C        -0.303904        -0.206332         0.366776
 O         0.878288        -0.379911         0.627899
 C        -0.909964         1.237957         0.089608
 O        -1.707580         1.357372        -1.083673
 H        -4.189080         1.429079        -2.363734
 H        -4.409311        -0.296924        -2.277183
 H        -4.461709         0.813490        -0.698034
 H        -2.346556        -1.432361        -3.107512
 H        -0.709971        -0.724124        -2.619618
 H        -3.095501        -1.602899        -0.903407
 H        -1.986069        -1.229398         1.184261
 H        -0.963902        -2.352282         0.317376
 H        -1.404991         1.418982         1.066302
 H        -0.054044         1.929055         0.036889
