19
Iteration:  2348charge 0 multiplicity 1
 C        -3.851986         0.907705        -1.446729
 C        -2.494582         0.128874        -1.421985
 C        -2.160984        -1.012939        -2.359962
 C        -2.159259        -1.262354        -0.907892
 C        -0.765697        -1.392629        -0.314010
 C        -0.346334        -0.156336         0.352873
 O         0.487624        -0.059402         1.265076
 C        -0.964267         1.173642        -0.043279
 O        -1.534782         1.253661        -1.359337
 H        -3.827186         1.976793        -1.612871
 H        -4.411814         0.478589        -2.235137
 H        -4.440312         0.699260        -0.568735
 H        -2.930309        -1.497140        -2.965925
 H        -1.200356        -0.930422        -2.768237
 H        -2.925117        -1.866385        -0.360370
 H        -0.751911        -2.252439         0.336492
 H        -0.015282        -1.767333        -1.023149
 H        -1.532060         1.563087         0.779004
 H        -0.107462         1.893140        -0.219609
