19
Iteration:  4922
 C        -3.748685         0.597425        -2.044153
 C        -2.453422         0.304515        -1.409657
 C        -1.768030        -0.683576        -2.286512
 C        -2.451755        -1.190691        -0.962198
 C        -1.283749        -1.372336         0.067346
 C        -0.304726        -0.248750         0.226987
 O         0.834249        -0.387389         0.722461
 C        -0.712833         1.213214         0.023222
 O        -1.919225         1.380227        -0.573705
 H        -4.220795        -0.251624        -2.531815
 H        -4.483045         0.954000        -1.317787
 H        -3.745737         1.585217        -2.720758
 H        -2.215290        -0.917417        -3.297152
 H        -0.631823        -0.680723        -2.301995
 H        -3.456025        -1.607938        -0.821044
 H        -1.745137        -1.546175         1.015594
 H        -0.643625        -2.293321        -0.034638
 H        -0.735392         1.806729         0.984752
 H         0.098089         1.659200        -0.563898
