19
Iteration:  2585charge 0 multiplicity 1
 C        -3.927228         0.505063        -1.760674
 C        -2.401517         0.189436        -1.566295
 C        -1.750512        -0.736946        -2.403327
 C        -2.150067        -1.136618        -0.991171
 C        -1.384774        -1.280197         0.297476
 C        -0.326059        -0.153353         0.441763
 O         0.858475        -0.302697         0.409521
 C        -0.992537         1.271228         0.354452
 O        -1.656337         1.290248        -0.986428
 H        -4.192921         1.195989        -2.595508
 H        -4.529205        -0.382420        -1.747465
 H        -4.285699         1.027648        -0.850080
 H        -2.303290        -1.093865        -3.208926
 H        -0.720304        -0.727349        -2.625852
 H        -3.015721        -1.707239        -1.214112
 H        -2.096340        -1.165612         1.195143
 H        -0.986449        -2.246933         0.479416
 H        -1.629625         1.489721         1.231610
 H        -0.080329         1.939460         0.243026
