19
Iteration:  3012
 C        -3.946347         0.715568        -1.652906
 C        -2.529133         0.225094        -1.493512
 C        -2.196333        -0.848452        -2.401336
 C        -2.241311        -1.152920        -0.890463
 C        -0.895323        -1.372324        -0.238478
 C        -0.213020        -0.097597         0.423433
 O         0.639322        -0.169392         1.299913
 C        -0.813974         1.136134        -0.027685
 O        -1.592980         1.211153        -1.239872
 H        -4.158363         0.908922        -2.704857
 H        -4.578179        -0.112884        -1.201781
 H        -4.052606         1.724702        -1.279084
 H        -2.977579        -1.233151        -3.124595
 H        -1.213392        -0.883392        -2.825778
 H        -3.079801        -1.746327        -0.645949
 H        -0.933158        -2.135033         0.546156
 H        -0.098161        -1.770363        -0.941098
 H        -1.473580         1.450781         0.837836
 H         0.039074         1.898503        -0.080890
