19
Iteration:   604
 C        -3.890650         0.436325        -1.860556
 C        -2.424449         0.201479        -1.409247
 C        -1.957448        -0.904225        -2.363988
 C        -2.271220        -1.159860        -0.828452
 C        -1.140037        -1.374272         0.121379
 C        -0.229415        -0.134396         0.253631
 O         0.888348        -0.116294         0.720896
 C        -0.893465         1.261920         0.038850
 O        -1.840288         1.382795        -0.930008
 H        -3.927145         1.429756        -2.434361
 H        -4.241606        -0.454980        -2.421273
 H        -4.439314         0.611026        -0.937898
 H        -2.686739        -1.120720        -3.077007
 H        -0.960588        -0.974461        -2.752901
 H        -3.135274        -1.740419        -0.500550
 H        -1.508789        -1.261697         1.161116
 H        -0.511376        -2.179080         0.105756
 H        -1.376542         1.498230         1.043222
 H        -0.108294         2.045743        -0.105014
