19
Iteration:   513
 C        -3.909406         0.223265        -1.987607
 C        -2.482143         0.237491        -1.413377
 C        -1.468146        -0.537981        -2.211644
 C        -2.231086        -1.147409        -1.028379
 C        -1.468033        -0.970233         0.411052
 C        -0.278148        -0.075880         0.280511
 O         0.918015        -0.431078         0.359133
 C        -0.726410         1.279085        -0.192752
 O        -2.096488         1.166830        -0.355438
 H        -3.868285         0.248716        -3.060351
 H        -4.198509        -0.821786        -1.758031
 H        -4.702588         0.990490        -1.689615
 H        -1.844043        -0.853384        -3.288758
 H        -0.369310        -0.373895        -2.242744
 H        -3.059473        -1.877926        -1.324324
 H        -2.247699        -0.534551         0.990059
 H        -1.281134        -2.090534         0.661179
 H        -0.582513         1.977647         0.665131
 H        -0.045632         1.494179        -1.131538
