19
Iteration:  1631
 C        -3.910025         1.027159        -1.544024
 C        -2.533059         0.175145        -1.504290
 C        -2.342131        -1.071424        -2.380211
 C        -2.210070        -1.245406        -0.923647
 C        -0.742257        -1.153637        -0.417117
 C        -0.310546        -0.129801         0.596929
 O         0.669249        -0.198808         1.334222
 C        -1.073060         1.252871         0.008379
 O        -1.387024         0.973041        -1.365636
 H        -3.525978         1.875679        -2.078554
 H        -4.760649         0.527285        -1.995477
 H        -4.263269         1.346791        -0.509164
 H        -3.192501        -1.710525        -2.655241
 H        -1.417017        -1.266526        -2.979636
 H        -2.927963        -1.799657        -0.350462
 H        -0.435568        -2.160756        -0.205765
 H        -0.125754        -0.856807        -1.307947
 H        -1.918441         1.355670         0.694965
 H        -0.298363         2.065266         0.025176
