19
Iteration:   198
 C        -3.816254         0.857882        -1.031397
 C        -2.531781         0.082191        -1.486124
 C        -2.341774        -1.266416        -2.246997
 C        -1.928924        -1.192484        -0.791861
 C        -0.410926        -1.237610        -0.506603
 C        -0.306715         0.062200         0.327761
 O        -0.018481        -0.027972         1.516720
 C        -0.818255         1.323507        -0.413873
 O        -1.519787         1.001916        -1.644224
 H        -4.708605         0.550093        -1.570550
 H        -4.060395         0.581498        -0.005973
 H        -3.741949         1.993392        -1.181304
 H        -3.356190        -1.798674        -2.384629
 H        -1.577587        -1.280930        -3.025815
 H        -2.583016        -1.716637        -0.182992
 H        -0.073870        -2.099004         0.060223
 H         0.115474        -1.128405        -1.447071
 H        -1.474065         1.876381         0.290500
 H         0.101562         1.917305        -0.566596
