19
Iteration:  4501charge 0 multiplicity 1
 C        -3.951812         0.693636        -1.935192
 C        -2.567832         0.218077        -1.424445
 C        -1.602514        -0.492550        -2.304349
 C        -2.227476        -1.187012        -0.993440
 C        -1.351551        -1.321775         0.231515
 C        -0.264921        -0.289152         0.301760
 O         0.870599        -0.522507         0.690064
 C        -0.749838         1.155790         0.019224
 O        -1.946587         1.408437        -0.825225
 H        -4.411478        -0.277644        -2.161671
 H        -4.528097         1.126985        -1.036851
 H        -3.911193         1.312253        -2.761737
 H        -1.793464        -1.078634        -3.230898
 H        -0.589519        -0.069123        -2.196983
 H        -2.974855        -2.007875        -1.181532
 H        -2.041248        -1.270926         1.087633
 H        -0.943168        -2.373736         0.522011
 H        -0.859030         1.505262         1.039107
 H         0.044147         1.665024        -0.498061
