19
Iteration:  3547charge 0 multiplicity 1
 C        -3.892379         0.567175        -1.116077
 C        -2.497207         0.239632        -1.405360
 C        -2.403849        -0.722146        -2.541295
 C        -1.973350        -1.132186        -1.118890
 C        -0.511883        -1.326257        -0.628734
 C        -0.349707        -0.244848         0.417418
 O        -0.222667        -0.169481         1.619192
 C        -0.389943         1.125550        -0.342062
 O        -1.466900         1.269084        -1.200922
 H        -4.643742         0.693364        -1.912699
 H        -4.370781        -0.105961        -0.480176
 H        -3.904742         1.522629        -0.559186
 H        -3.404974        -1.018654        -2.993572
 H        -1.642601        -0.799149        -3.301212
 H        -2.798137        -1.584893        -0.471123
 H        -0.214112        -2.236496        -0.094903
 H         0.235735        -1.262339        -1.407031
 H        -0.464944         1.900150         0.440963
 H         0.627019         1.249668        -0.916848
