19
Iteration:  2195
 C        -3.728902         0.643223        -0.847014
 C        -2.421457         0.148849        -1.410317
 C        -2.481252        -0.979920        -2.420531
 C        -2.034279        -1.316212        -0.989174
 C        -0.565552        -1.241221        -0.619334
 C        -0.241765        -0.019207         0.355483
 O        -0.429430        -0.088989         1.559792
 C        -0.478458         1.362651        -0.324827
 O        -1.277036         1.096905        -1.585015
 H        -4.068424         1.554821        -1.369849
 H        -4.463782        -0.129626        -0.919289
 H        -3.710185         0.951123         0.179672
 H        -3.472512        -1.374761        -2.558090
 H        -1.684376        -0.980480        -3.211392
 H        -2.767034        -1.886680        -0.359488
 H        -0.244314        -2.178892        -0.148506
 H        -0.004489        -1.111640        -1.605507
 H        -1.142934         1.974434         0.282291
 H         0.450766         1.908151        -0.657127
