19
Iteration:  4954charge 0 multiplicity 1
 C        -3.890740         0.778853        -2.063344
 C        -2.539643         0.262383        -1.445184
 C        -1.606955        -0.611306        -2.226166
 C        -2.219799        -1.158223        -0.955422
 C        -1.309546        -1.384363         0.282836
 C        -0.257625        -0.292482         0.311505
 O         0.914136        -0.470818         0.610708
 C        -0.815781         1.145406        -0.031892
 O        -2.060123         1.334349        -0.629819
 H        -4.721265         0.095766        -2.197428
 H        -4.100150         1.545056        -1.351262
 H        -3.572845         1.216659        -3.174999
 H        -1.922684        -1.217115        -3.144971
 H        -0.500236        -0.274343        -2.478762
 H        -3.140247        -1.746759        -1.108550
 H        -1.997011        -1.291365         1.110814
 H        -0.758875        -2.331670         0.080827
 H        -0.976596         1.685462         0.945329
 H        -0.110730         1.643306        -0.671088
