19
Iteration:  3298
 C        -4.002960         0.575283        -1.683763
 C        -2.546053         0.328157        -1.432534
 C        -1.719574        -0.586205        -2.468094
 C        -2.191422        -1.122567        -1.094322
 C        -1.189087        -1.413431        -0.031424
 C        -0.280131        -0.237330         0.399046
 O         0.761708        -0.305524         1.031662
 C        -0.669921         1.072927        -0.271936
 O        -1.945544         1.333996        -0.710764
 H        -4.111316         1.037799        -2.730598
 H        -4.673758        -0.278660        -1.672036
 H        -4.417615         1.390282        -0.990754
 H        -2.235251        -0.925821        -3.375968
 H        -0.610836        -0.409014        -2.508139
 H        -3.075845        -1.832116        -0.987787
 H        -1.694151        -1.504763         0.984309
 H        -0.616964        -2.428669        -0.155408
 H        -0.366002         1.866633         0.475723
 H         0.114006         1.261997        -1.000435
