19
Iteration:  2421
 C        -3.816969         0.758728        -1.469500
 C        -2.469442         0.132520        -1.520972
 C        -1.931513        -0.800706        -2.512906
 C        -2.128186        -1.273779        -1.039252
 C        -1.156909        -1.378867         0.165257
 C        -0.369962        -0.130689         0.373147
 O         0.784605        -0.167665         0.842959
 C        -1.056410         1.173745         0.109095
 O        -1.606994         1.274047        -1.215578
 H        -4.029519         1.193210        -2.508754
 H        -4.607875        -0.017165        -1.264120
 H        -3.991316         1.565177        -0.723650
 H        -2.666358        -1.239182        -3.256357
 H        -0.899116        -0.687774        -2.817394
 H        -3.059271        -1.893485        -0.979495
 H        -1.658877        -1.616535         1.151500
 H        -0.360979        -2.117065         0.219117
 H        -1.916736         1.369562         0.805749
 H        -0.299863         2.003415         0.223735
