19
Iteration:  2347
 C        -3.852830         0.914030        -1.441973
 C        -2.498315         0.121936        -1.423428
 C        -2.163524        -1.027426        -2.366505
 C        -2.163209        -1.269871        -0.907661
 C        -0.762614        -1.381960        -0.320076
 C        -0.341532        -0.154814         0.346906
 O         0.478611        -0.057001         1.271588
 C        -0.951548         1.171704        -0.045426
 O        -1.532630         1.256921        -1.352260
 H        -3.839777         1.992625        -1.614642
 H        -4.430628         0.505914        -2.248543
 H        -4.411040         0.689567        -0.550560
 H        -2.953191        -1.495853        -2.985717
 H        -1.186481        -0.949469        -2.791400
 H        -2.944613        -1.875481        -0.360690
 H        -0.737728        -2.233831         0.330060
 H        -0.007344        -1.727704        -0.993733
 H        -1.542679         1.549563         0.787021
 H        -0.093065         1.899290        -0.221312
