19
Iteration:  2118charge 0 multiplicity 1
 C        -3.680472         0.707332        -1.067849
 C        -2.414535         0.139861        -1.415796
 C        -2.472243        -0.885235        -2.434782
 C        -2.051558        -1.256701        -1.015917
 C        -0.660507        -1.186203        -0.483842
 C        -0.450879        -0.028702         0.397448
 O        -0.001920        -0.115848         1.486444
 C        -0.739769         1.227668        -0.244108
 O        -1.284073         0.989988        -1.516615
 H        -4.013570         1.621478        -1.575118
 H        -4.504133        -0.019716        -1.068134
 H        -3.614874         1.015853        -0.019686
 H        -3.530624        -1.164660        -2.763167
 H        -1.806088        -0.842410        -3.292316
 H        -2.716875        -1.870166        -0.425347
 H        -0.400327        -1.981078         0.200618
 H         0.157892        -0.995480        -1.244692
 H        -1.423646         1.860719         0.356576
 H         0.246700         1.797180        -0.348633
