19
Iteration:  2242charge 0 multiplicity 1
 C        -3.686715         0.833081        -0.826798
 C        -2.460197         0.130899        -1.409612
 C        -2.381979        -1.041147        -2.523041
 C        -1.875134        -1.306008        -1.107767
 C        -0.480195        -1.303901        -0.411793
 C        -0.511280        -0.075378         0.399614
 O        -0.212445        -0.142257         1.566594
 C        -0.664460         1.301014        -0.399986
 O        -1.422887         1.175418        -1.585088
 H        -4.371272         1.290600        -1.577569
 H        -4.225206         0.058260        -0.246705
 H        -3.449882         1.671231        -0.098807
 H        -3.343742        -1.493448        -2.717960
 H        -1.778534        -0.803374        -3.340931
 H        -2.633991        -1.963319        -0.689324
 H        -0.349848        -2.225529         0.148746
 H         0.158225        -1.192612        -1.235926
 H        -1.219819         2.003762         0.300993
 H         0.268079         1.690399        -0.734578
