19
Iteration:  4870
 C        -4.011504         0.739270        -1.793596
 C        -2.607032         0.270013        -1.461003
 C        -1.621121        -0.538509        -2.382781
 C        -2.241817        -1.132713        -1.084777
 C        -1.366693        -1.367251         0.209131
 C        -0.264251        -0.329725         0.400222
 O         0.833997        -0.340659         0.889209
 C        -0.590057         1.059693        -0.217321
 O        -1.917562         1.254715        -0.787720
 H        -4.394794         0.415297        -2.743511
 H        -4.794967         0.568290        -0.974182
 H        -3.963469         1.819017        -1.935908
 H        -1.987293        -0.898939        -3.343781
 H        -0.636972        -0.204285        -2.240414
 H        -2.820366        -2.044850        -1.294643
 H        -2.188116        -1.509486         0.985958
 H        -0.899465        -2.375776         0.379603
 H        -0.607229         1.830125         0.576900
 H         0.244569         1.394161        -0.901940
