19
Iteration:  2314
 C        -3.855709         0.774966        -1.312961
 C        -2.535854         0.157661        -1.508345
 C        -2.405798        -1.023162        -2.492105
 C        -2.108063        -1.175661        -0.945885
 C        -0.691827        -1.236665        -0.450178
 C        -0.227259        -0.064799         0.489534
 O         0.357576        -0.158746         1.566456
 C        -0.854167         1.299090        -0.133702
 O        -1.428349         1.054103        -1.469431
 H        -3.908694         1.857552        -1.473742
 H        -4.540633         0.239529        -1.946632
 H        -4.172716         0.558797        -0.316675
 H        -3.351087        -1.476729        -2.834109
 H        -1.582330        -1.040952        -3.225256
 H        -2.954402        -1.678748        -0.398845
 H        -0.690351        -2.112052         0.181648
 H         0.123233        -1.191904        -1.182342
 H        -1.513545         1.837433         0.514139
 H         0.055778         1.932201        -0.459019
