19
Iteration:  1542charge 0 multiplicity 1
 C        -3.791640         0.665496        -0.776199
 C        -2.525797         0.182244        -1.475368
 C        -2.257511        -0.917149        -2.598298
 C        -2.103236        -1.208847        -1.080020
 C        -0.694244        -1.277068        -0.496933
 C        -0.434183        -0.116818         0.479162
 O        -0.101874        -0.066752         1.658852
 C        -0.467254         1.193624        -0.426443
 O        -1.417326         1.131583        -1.571930
 H        -4.546637         1.095999        -1.450338
 H        -4.295520        -0.158227        -0.240064
 H        -3.618864         1.486493        -0.059076
 H        -3.070944        -1.447225        -3.081269
 H        -1.407577        -0.547088        -3.111474
 H        -2.953476        -1.841101        -0.666236
 H        -0.396036        -2.183121         0.076451
 H         0.110579        -1.158028        -1.219378
 H        -0.604355         2.228601         0.017686
 H         0.542357         1.260458        -1.003005
