19
Iteration:  2390charge 0 multiplicity 1
 C        -3.995206         0.673760        -1.472901
 C        -2.541349         0.267408        -1.594197
 C        -2.123850        -0.908993        -2.506899
 C        -2.216119        -1.167414        -1.076537
 C        -1.082257        -1.244811        -0.098125
 C        -0.215645        -0.041406         0.460546
 O         0.813453        -0.158673         1.124358
 C        -0.969825         1.167671         0.156269
 O        -1.431133         1.112979        -1.261462
 H        -4.280474         1.466614        -2.214553
 H        -4.495260        -0.154887        -1.974438
 H        -4.331550         0.876356        -0.457939
 H        -2.852761        -1.411904        -3.182850
 H        -1.141302        -0.924840        -2.917234
 H        -3.143892        -1.760298        -0.828203
 H        -1.406029        -1.610835         0.864672
 H        -0.344628        -1.979300        -0.376657
 H        -1.910293         1.226710         0.753078
 H        -0.272854         2.085610         0.266735
