19
Iteration:  4022
 C        -3.992844         0.670880        -1.644785
 C        -2.609700         0.299259        -1.505567
 C        -1.969330        -0.600586        -2.597145
 C        -2.221816        -1.146289        -1.133699
 C        -1.150944        -1.396746         0.016730
 C        -0.296919        -0.184776         0.521957
 O         0.814720        -0.415177         1.021947
 C        -0.823072         1.182411         0.202857
 O        -1.551612         1.256958        -1.118985
 H        -4.665451        -0.190711        -1.690850
 H        -4.338991         1.253603        -0.734244
 H        -4.214052         1.276660        -2.469735
 H        -2.641592        -0.925436        -3.403002
 H        -0.936069        -0.488195        -2.914858
 H        -2.970115        -1.830380        -1.193144
 H        -1.461931        -1.819830         0.982356
 H        -0.353413        -2.120639        -0.248564
 H        -1.559415         1.556706         1.017642
 H        -0.094555         1.958884         0.044065
