19
Iteration:   598charge 0 multiplicity 1
 C        -3.870337         0.498308        -1.880731
 C        -2.506684         0.179134        -1.398539
 C        -1.883232        -0.888916        -2.333011
 C        -2.244370        -1.183225        -0.816630
 C        -1.158375        -1.338581         0.128717
 C        -0.219620        -0.155827         0.249196
 O         0.913344        -0.092592         0.696068
 C        -0.888363         1.227867         0.021162
 O        -1.881826         1.365037        -0.899297
 H        -3.961947         1.337358        -2.550197
 H        -4.358244        -0.358412        -2.353097
 H        -4.605764         0.818090        -1.085060
 H        -2.681369        -1.110238        -3.134398
 H        -0.821791        -1.086794        -2.574943
 H        -3.157426        -1.742747        -0.602525
 H        -1.605409        -1.430713         1.180802
 H        -0.495398        -2.317211         0.100759
 H        -1.255032         1.560977         0.999789
 H        -0.116152         1.948248        -0.214435
