19
Iteration:  4713charge 0 multiplicity 1
 C        -3.990079         0.657228        -1.709099
 C        -2.447246         0.290641        -1.415742
 C        -1.984203        -0.617651        -2.490587
 C        -2.213050        -1.110406        -1.109004
 C        -1.065158        -1.437738        -0.070608
 C        -0.248694        -0.245341         0.339234
 O         0.553265        -0.398257         1.244164
 C        -0.502533         1.130483        -0.250719
 O        -1.840276         1.396907        -0.791440
 H        -4.365277        -0.149051        -2.390481
 H        -4.679965         0.600979        -0.927348
 H        -4.040386         1.727745        -2.156917
 H        -2.710192        -0.828222        -3.329859
 H        -0.953117        -0.754404        -2.698133
 H        -3.116787        -1.662265        -0.936772
 H        -1.534969        -1.741513         0.905590
 H        -0.387441        -2.238137        -0.579391
 H        -0.407240         1.903338         0.523532
 H         0.379581         1.192225        -0.992202
