19
Iteration:   964charge 0 multiplicity 1
 C        -3.745648         1.018001        -1.250198
 C        -2.580607         0.095532        -1.452690
 C        -2.414089        -1.069517        -2.277025
 C        -1.957570        -1.190256        -0.801506
 C        -0.408386        -1.065692        -0.663765
 C        -0.347208        -0.076505         0.399464
 O         0.016585        -0.289512         1.543526
 C        -0.920897         1.219547        -0.207014
 O        -1.355724         0.973176        -1.511243
 H        -3.945479         1.752369        -2.091588
 H        -4.700076         0.419831        -1.182415
 H        -3.719755         1.518101        -0.289610
 H        -3.339464        -1.688146        -2.514060
 H        -1.712012        -1.165950        -3.106614
 H        -2.549520        -1.838638        -0.139550
 H        -0.024431        -2.123754        -0.525471
 H        -0.102623        -0.569334        -1.655019
 H        -1.642054         1.520461         0.554483
 H        -0.165181         2.081042        -0.365745
