19
Iteration:  4764charge 0 multiplicity 1
 C        -3.921926         0.865064        -1.732771
 C        -2.491547         0.227901        -1.407126
 C        -1.880969        -0.653470        -2.449369
 C        -2.197099        -1.188193        -1.049534
 C        -1.009156        -1.562716        -0.089143
 C        -0.389935        -0.268271         0.446019
 O         0.641099        -0.318507         1.137755
 C        -0.681184         1.081228        -0.278683
 O        -1.880460         1.409031        -0.794843
 H        -4.672217         0.127905        -2.064129
 H        -4.329336         1.326050        -0.738380
 H        -3.781994         1.623559        -2.486921
 H        -2.502099        -0.928304        -3.261007
 H        -0.878867        -0.372717        -2.699707
 H        -2.974941        -1.979163        -1.028350
 H        -1.479227        -2.039151         0.726378
 H        -0.211830        -2.131340        -0.469765
 H        -0.482518         1.885107         0.383730
 H         0.180956         1.054572        -0.939520
