19
Iteration:  2250charge 0 multiplicity 1
 C        -3.639591         0.822076        -0.875155
 C        -2.430362         0.084646        -1.466641
 C        -2.388075        -1.019421        -2.567171
 C        -1.954385        -1.301266        -1.098881
 C        -0.552870        -1.329445        -0.399397
 C        -0.372949        -0.068790         0.366758
 O        -0.195178        -0.133787         1.581275
 C        -0.677300         1.339850        -0.365148
 O        -1.518495         1.158688        -1.526475
 H        -4.307268         1.304119        -1.600632
 H        -4.300169         0.276166        -0.256265
 H        -3.166339         1.541759        -0.237638
 H        -3.334864        -1.483748        -2.758414
 H        -1.605078        -0.907169        -3.360661
 H        -2.594397        -1.847497        -0.311779
 H        -0.265553        -2.246032         0.129189
 H         0.305264        -1.196560        -1.229651
 H        -1.271683         1.941093         0.327981
 H         0.308239         1.914943        -0.553166
