19
Iteration:  3213charge 0 multiplicity 1
 C        -3.869654         0.689775        -1.993166
 C        -2.511143         0.223473        -1.387536
 C        -1.555536        -0.668024        -2.223510
 C        -2.158174        -1.205326        -0.974071
 C        -1.339687        -1.344105         0.300896
 C        -0.348918        -0.174783         0.352645
 O         0.853339        -0.407232         0.440351
 C        -0.742962         1.220988        -0.012847
 O        -2.090319         1.312904        -0.648048
 H        -3.639014         1.552322        -2.668586
 H        -4.461344        -0.027599        -2.490133
 H        -4.416621         0.938681        -1.063213
 H        -1.946944        -1.069807        -3.171134
 H        -0.463125        -0.528033        -2.261691
 H        -3.050622        -1.995231        -1.065485
 H        -1.969686        -1.361619         1.184335
 H        -0.818129        -2.316772         0.151362
 H        -0.972036         1.879295         0.865050
 H         0.022603         1.564239        -0.742109
