19
Iteration:  3771charge 0 multiplicity 1
 C        -3.862169         0.721944        -1.331600
 C        -2.473179         0.349059        -1.534837
 C        -2.075219        -0.764511        -2.512869
 C        -2.222586        -1.161512        -1.159657
 C        -0.882692        -1.473833        -0.315653
 C        -0.399389        -0.216352         0.443318
 O         0.484617        -0.281710         1.322312
 C        -0.861204         1.154942         0.041006
 O        -1.463290         1.285593        -1.249667
 H        -4.632451         0.279299        -1.993964
 H        -4.235353         0.539221        -0.229316
 H        -3.953763         1.793306        -1.442805
 H        -2.853150        -1.075207        -3.246863
 H        -1.043306        -0.795638        -2.960754
 H        -3.136858        -1.699127        -0.830731
 H        -1.061823        -2.274662         0.388050
 H        -0.174847        -1.639753        -1.116079
 H        -1.523979         1.448437         0.868608
 H        -0.216232         2.076683         0.008393
