19
Iteration:  2154charge 0 multiplicity 1
 C        -3.748624         0.891001        -0.942051
 C        -2.528531         0.150137        -1.394628
 C        -2.347322        -0.999025        -2.344997
 C        -1.900296        -1.188726        -0.944489
 C        -0.423767        -1.310890        -0.600757
 C        -0.333931        -0.127164         0.433196
 O        -0.263547        -0.170520         1.657239
 C        -0.708602         1.196235        -0.449817
 O        -1.471726         1.139085        -1.702462
 H        -3.662567         1.994274        -1.270230
 H        -4.740683         0.469333        -1.190303
 H        -3.617433         0.820075         0.197804
 H        -3.188655        -1.521599        -2.684174
 H        -1.513828        -0.805578        -3.060555
 H        -2.578492        -1.742435        -0.233891
 H        -0.124592        -2.287220        -0.244525
 H         0.176990        -1.153087        -1.480697
 H        -1.125546         1.733823         0.480279
 H         0.194387         1.683737        -0.708561
