19
Iteration:   894
 C        -3.732789         0.595798        -0.647898
 C        -2.467474         0.182105        -1.375428
 C        -2.311800        -0.868855        -2.463743
 C        -1.898013        -1.173097        -0.980790
 C        -0.493892        -1.288409        -0.604619
 C        -0.456297        -0.074282         0.342227
 O        -0.477254        -0.073424         1.546295
 C        -0.543126         1.278780        -0.524540
 O        -1.350462         1.054166        -1.603440
 H        -4.428341         1.250925        -1.233266
 H        -4.352024        -0.261851        -0.279806
 H        -3.450572         1.193130         0.305192
 H        -2.984062        -1.510642        -2.991505
 H        -1.474437        -0.631384        -3.053390
 H        -2.550381        -1.905234        -0.507430
 H        -0.200998        -2.138215        -0.045785
 H         0.127175        -1.045713        -1.423327
 H        -0.936650         2.098665         0.103895
 H         0.492405         1.466118        -0.746119
