19
Iteration:  1299charge 0 multiplicity 1
 C        -3.909369         0.837120        -1.786674
 C        -2.579600         0.186897        -1.513066
 C        -2.009570        -0.864822        -2.382525
 C        -2.239775        -1.174258        -0.888886
 C        -1.087451        -1.451389         0.078019
 C        -0.221007        -0.209665         0.375248
 O         0.870358        -0.119663         0.973087
 C        -0.838678         1.120745        -0.026949
 O        -1.793533         1.280674        -1.072125
 H        -3.686730         1.604427        -2.555960
 H        -4.535277         0.007464        -2.101658
 H        -4.307187         1.314698        -0.945890
 H        -2.697025        -1.289014        -3.169405
 H        -0.929866        -0.811114        -2.522126
 H        -3.128429        -1.755084        -0.681381
 H        -1.445153        -1.817121         1.108098
 H        -0.423318        -2.239112        -0.403731
 H        -1.356339         1.305771         0.945708
 H         0.095614         1.804919        -0.190500
