19
Iteration:  1443
 C        -3.647928         0.826794        -0.871077
 C        -2.423585         0.141714        -1.424457
 C        -2.511571        -1.083437        -2.351210
 C        -1.993707        -1.234035        -0.957242
 C        -0.453665        -1.134262        -0.664066
 C        -0.402680        -0.022238         0.404770
 O        -0.401513        -0.224767         1.600527
 C        -0.507207         1.251482        -0.380486
 O        -1.349968         1.070824        -1.626353
 H        -3.546614         1.907254        -0.876904
 H        -4.602756         0.530889        -1.290965
 H        -3.689210         0.506198         0.159969
 H        -3.527978        -1.281066        -2.554627
 H        -1.722290        -1.238519        -3.065941
 H        -2.687759        -1.693140        -0.241785
 H        -0.023736        -2.153130        -0.399014
 H        -0.092601        -0.782298        -1.641950
 H        -1.081058         2.025011         0.177828
 H         0.446341         1.712644        -0.766652
