19
Iteration:  3174charge 0 multiplicity 1
 C        -3.863459         0.574192        -2.100563
 C        -2.433355         0.274066        -1.429219
 C        -1.646548        -0.779204        -2.136530
 C        -2.360042        -1.084403        -0.830807
 C        -1.362626        -1.289333         0.235177
 C        -0.257019        -0.232905         0.239600
 O         0.996122        -0.335325         0.320062
 C        -0.914981         1.115144         0.288983
 O        -1.927252         1.403621        -0.761818
 H        -3.968754         1.632790        -2.302573
 H        -3.865478         0.024545        -3.111052
 H        -4.839358         0.405730        -1.634681
 H        -2.161535        -1.037060        -3.017733
 H        -0.556481        -0.847574        -2.259972
 H        -3.217405        -1.700140        -0.752813
 H        -1.826004        -1.278059         1.276831
 H        -0.808543        -2.226045         0.233591
 H        -1.430207         1.104865         1.261981
 H        -0.178716         1.934530         0.326510
