19
Iteration:  2096charge 0 multiplicity 1
 C        -3.736823         0.776560        -1.045449
 C        -2.426446         0.174981        -1.499242
 C        -2.362206        -0.996493        -2.531533
 C        -2.099078        -1.222660        -1.054540
 C        -0.709887        -1.453259        -0.400419
 C        -0.409906        -0.088530         0.524381
 O         0.216997        -0.138438         1.541668
 C        -0.866778         1.347591        -0.229630
 O        -1.370620         1.180396        -1.582133
 H        -4.255003         1.464376        -1.774990
 H        -4.476943        -0.016905        -0.777977
 H        -3.679421         1.397924        -0.144097
 H        -3.327132        -1.432774        -3.010138
 H        -1.533267        -1.131840        -3.230795
 H        -2.945086        -1.561255        -0.493689
 H        -0.546879        -2.306446         0.259134
 H         0.052828        -1.332522        -1.229587
 H        -1.474077         1.972480         0.460201
 H         0.160375         1.847718        -0.413170
