19
Iteration:  2453
 C        -3.992722         0.739021        -1.646688
 C        -2.510660         0.217467        -1.540029
 C        -1.682770        -0.766485        -2.288031
 C        -2.290566        -1.107764        -0.892701
 C        -1.161501        -1.483331         0.210479
 C        -0.334017        -0.251939         0.370496
 O         0.841542        -0.154890         0.555467
 C        -1.163566         1.196070         0.221853
 O        -1.519951         1.224368        -1.177126
 H        -4.115483         1.177797        -2.696574
 H        -4.679030        -0.155121        -1.550742
 H        -4.295898         1.516342        -0.904868
 H        -2.070466        -1.374425        -3.166644
 H        -0.611625        -0.589616        -2.256603
 H        -3.221906        -1.727599        -0.898046
 H        -1.616090        -1.680346         1.242711
 H        -0.435391        -2.216308        -0.193229
 H        -1.929613         1.515129         0.944997
 H        -0.340234         1.940279         0.344052
