19
Iteration:  2438charge 0 multiplicity 1
 C        -3.949259         0.767178        -1.577629
 C        -2.512066         0.233637        -1.393343
 C        -1.760107        -0.770528        -2.314693
 C        -2.080081        -1.212382        -0.917285
 C        -1.167579        -1.528027         0.157527
 C        -0.430694        -0.167457         0.412075
 O         0.753624        -0.151306         0.656182
 C        -1.092756         1.177951         0.071310
 O        -1.536146         1.266843        -1.257189
 H        -4.151392         1.163829        -2.531574
 H        -4.743274         0.047877        -1.385653
 H        -3.972798         1.567271        -0.840647
 H        -2.182220        -1.268135        -3.176199
 H        -0.785071        -0.301384        -2.577401
 H        -2.899214        -1.894929        -0.936081
 H        -1.743127        -1.826526         1.046989
 H        -0.589806        -2.500040        -0.060935
 H        -1.971455         1.300508         0.749141
 H        -0.331867         1.894959         0.218812
