19
Iteration:  2200charge 0 multiplicity 1
 C        -3.725781         0.635608        -0.822955
 C        -2.421373         0.169917        -1.427689
 C        -2.472050        -0.948647        -2.463511
 C        -2.058508        -1.269088        -0.951285
 C        -0.569235        -1.272594        -0.620418
 C        -0.232304        -0.012711         0.374905
 O        -0.429760        -0.076993         1.573989
 C        -0.480530         1.327540        -0.372065
 O        -1.269718         1.052619        -1.584731
 H        -4.180851         1.431858        -1.488849
 H        -4.444326        -0.247116        -0.892470
 H        -3.746743         1.021234         0.263435
 H        -3.504601        -1.323916        -2.626315
 H        -1.740071        -0.851299        -3.211092
 H        -2.735079        -1.918228        -0.427498
 H         0.003180        -2.121702        -0.187737
 H         0.032977        -0.947031        -1.430952
 H        -1.132069         1.858922         0.404068
 H         0.326077         1.956617        -0.674388
