19
Iteration:  2746charge 0 multiplicity 1
 C        -3.781768         0.804443        -1.184020
 C        -2.440036         0.184924        -1.482944
 C        -2.412270        -0.884735        -2.461610
 C        -2.104336        -1.245312        -1.018471
 C        -0.710959        -1.352547        -0.351024
 C        -0.326981        -0.065742         0.407116
 O         0.343645        -0.077606         1.445397
 C        -0.981145         1.206440        -0.076225
 O        -1.328824         1.061334        -1.535218
 H        -4.111473         1.536078        -1.962775
 H        -4.521757         0.005609        -1.172776
 H        -3.812138         1.170012        -0.145534
 H        -3.303810        -1.276996        -2.954257
 H        -1.584055        -0.920272        -3.144465
 H        -2.863721        -1.830342        -0.540257
 H        -0.563646        -2.095675         0.413899
 H         0.015880        -1.590687        -1.207712
 H        -1.884527         1.418492         0.455676
 H        -0.324954         2.106593        -0.138695
