19
Iteration:   245
 C        -4.029448         0.591856        -1.410449
 C        -2.511907         0.131505        -1.463457
 C        -2.405777        -1.159456        -2.236366
 C        -2.100865        -1.143856        -0.774875
 C        -0.601019        -1.186582        -0.448822
 C        -0.268143        -0.020225         0.389371
 O         0.350628        -0.035419         1.435439
 C        -0.730100         1.335001        -0.252047
 O        -1.459316         1.104250        -1.466617
 H        -4.708332        -0.238534        -1.174450
 H        -4.248364         1.357475        -0.644527
 H        -4.243389         1.002699        -2.378082
 H        -3.382513        -1.530366        -2.480781
 H        -1.477948        -1.371274        -2.840110
 H        -2.807593        -1.620586         0.022902
 H        -0.335326        -2.194599        -0.045910
 H         0.027197        -0.889186        -1.301190
 H        -1.264517         1.971175         0.423982
 H         0.133507         1.867580        -0.558445
