19
Iteration:  1017
 C        -3.892753         0.628354        -1.253384
 C        -2.453076         0.239581        -1.534425
 C        -2.199592        -0.858775        -2.540718
 C        -2.154011        -1.157525        -1.038429
 C        -0.979051        -1.472882        -0.169797
 C        -0.364009        -0.136474         0.444632
 O         0.515758         0.017929         1.307116
 C        -0.819387         1.142644        -0.102773
 O        -1.424859         1.207237        -1.374932
 H        -4.187191         1.507365        -1.973554
 H        -4.540333        -0.307615        -1.415484
 H        -4.156341         1.064519        -0.258230
 H        -3.046072        -1.221815        -3.188876
 H        -1.221023        -0.894740        -2.986767
 H        -3.097746        -1.642599        -0.711826
 H        -1.283501        -2.240414         0.549878
 H        -0.163937        -1.901486        -0.833942
 H        -1.310210         1.652490         0.743627
 H         0.088409         1.803233        -0.340743
