19
Iteration:  3728
 C        -3.884154         1.000357        -1.481489
 C        -2.528225         0.304203        -1.490118
 C        -2.329183        -0.860646        -2.473284
 C        -2.004770        -1.215277        -1.053325
 C        -0.637898        -1.257635        -0.564791
 C        -0.348165        -0.197813         0.463454
 O         0.424253        -0.328669         1.425113
 C        -1.051560         1.136418         0.157554
 O        -1.376293         1.049314        -1.259149
 H        -4.679933         0.249533        -1.634250
 H        -4.116850         1.462003        -0.416669
 H        -3.861626         1.871210        -2.106016
 H        -3.369287        -1.175436        -2.841535
 H        -1.574111        -0.852987        -3.296986
 H        -2.763308        -1.951225        -0.717767
 H        -0.527709        -2.265966        -0.168085
 H         0.159533        -1.013450        -1.259497
 H        -2.051325         1.230076         0.799861
 H        -0.380324         2.021464         0.458697
