19
Iteration:  1926
 C        -3.886196         0.664471        -1.662312
 C        -2.437611         0.163037        -1.534189
 C        -1.780654        -0.854815        -2.369955
 C        -2.220071        -1.183672        -0.976251
 C        -1.344774        -1.204035         0.215889
 C        -0.282509        -0.078653         0.215331
 O         0.825601        -0.350037         0.566284
 C        -1.077426         1.234740         0.319570
 O        -1.532319         1.246027        -1.030552
 H        -4.001224         1.366007        -2.488908
 H        -4.515160        -0.182008        -1.775309
 H        -4.137467         1.162212        -0.729434
 H        -2.247570        -1.282017        -3.249851
 H        -0.733753        -0.651755        -2.593803
 H        -3.050140        -1.884066        -0.899072
 H        -2.091507        -0.948043         1.103295
 H        -0.872619        -2.227621         0.320915
 H        -1.959405         1.317089         1.032028
 H        -0.527312         2.130381         0.355333
