19
Iteration:  4992
 C        -3.873692         0.612211        -1.981660
 C        -2.485431         0.236377        -1.471630
 C        -1.464345        -0.538016        -2.235458
 C        -2.152052        -1.155849        -1.049727
 C        -1.577780        -1.244451         0.311231
 C        -0.290773        -0.194417         0.324119
 O         0.843881        -0.541318         0.468962
 C        -0.694575         1.178992        -0.070940
 O        -2.058804         1.243375        -0.491302
 H        -4.660896        -0.205278        -1.957928
 H        -4.309731         1.575856        -1.445419
 H        -3.773411         1.010052        -2.926196
 H        -1.699306        -0.772316        -3.202131
 H        -0.540995        -0.044713        -2.073534
 H        -2.930144        -1.808874        -1.462534
 H        -2.267370        -0.840587         1.081361
 H        -1.316839        -2.193388         0.734973
 H        -0.448315         1.834495         0.752378
 H         0.031806         1.490922        -0.886923
