19
Iteration:  2159charge 0 multiplicity 1
 C        -3.692905         0.882882        -0.913497
 C        -2.483250         0.146851        -1.418011
 C        -2.343381        -0.977475        -2.329628
 C        -1.904515        -1.182292        -0.923838
 C        -0.396212        -1.277424        -0.517353
 C        -0.385481        -0.147685         0.391697
 O        -0.281535        -0.188532         1.596135
 C        -0.715210         1.167467        -0.446273
 O        -1.507650         1.163607        -1.673877
 H        -3.650345         1.858538        -1.300811
 H        -4.633619         0.463662        -1.301244
 H        -3.662953         0.846805         0.155083
 H        -3.200155        -1.645560        -2.675097
 H        -1.678092        -0.911456        -3.175564
 H        -2.596609        -1.681955        -0.295103
 H        -0.036299        -2.287463        -0.188361
 H         0.065750        -1.036819        -1.518203
 H        -1.072283         1.863979         0.312213
 H         0.304379         1.609291        -0.723971
