19
Iteration:  2278
 C        -3.822453         0.762334        -1.023514
 C        -2.444413         0.198011        -1.426494
 C        -2.316108        -0.957780        -2.417022
 C        -2.068288        -1.197265        -0.980249
 C        -0.606919        -1.320640        -0.528831
 C        -0.377051        -0.088770         0.358763
 O        -0.015556        -0.059612         1.516436
 C        -0.780506         1.245349        -0.262427
 O        -1.315370         1.047352        -1.538050
 H        -4.320712         1.443295        -1.734891
 H        -4.493564        -0.153580        -0.942345
 H        -3.788193         1.205186        -0.005008
 H        -3.201547        -1.425192        -2.871500
 H        -1.464931        -0.802336        -3.133952
 H        -2.660209        -1.808973        -0.348605
 H        -0.309764        -2.208199         0.041053
 H         0.071010        -1.331256        -1.362878
 H        -1.499792         1.806333         0.383194
 H         0.129253         1.808146        -0.162917
