19
Iteration:  1893charge 0 multiplicity 1
 C        -3.950089         0.629010        -1.765461
 C        -2.450270         0.314321        -1.508922
 C        -1.682718        -0.765087        -2.238561
 C        -2.156340        -1.124727        -0.815049
 C        -1.347149        -1.528859         0.437631
 C        -0.397466        -0.275269         0.477577
 O         0.858567        -0.278799         0.357904
 C        -1.024272         1.189812         0.153117
 O        -1.596454         1.457838        -1.188461
 H        -4.074263         1.153736        -2.712184
 H        -4.651076        -0.141235        -1.891569
 H        -4.334958         1.340937        -1.074135
 H        -2.025440        -1.321313        -3.090698
 H        -0.687383        -0.255346        -2.199123
 H        -3.000654        -1.767170        -0.931516
 H        -2.180992        -1.953289         1.159819
 H        -0.879216        -2.492520         0.107234
 H        -1.871175         1.487522         0.886130
 H        -0.185734         1.853034         0.293153
