19
Iteration:  2084charge 0 multiplicity 1
 C        -3.873961         0.856138        -1.093583
 C        -2.515360         0.220539        -1.616748
 C        -2.249216        -1.033080        -2.516297
 C        -2.093741        -1.164766        -1.013854
 C        -0.747706        -1.412424        -0.317784
 C        -0.299340        -0.149223         0.419541
 O         0.259230        -0.113601         1.516754
 C        -0.836497         1.217448        -0.202338
 O        -1.415302         1.181692        -1.516271
 H        -4.452273         1.482565        -1.769926
 H        -4.493613         0.093252        -0.592340
 H        -3.450230         1.442275        -0.305949
 H        -3.134998        -1.573243        -2.981941
 H        -1.322971        -0.883769        -3.092500
 H        -2.882006        -1.722390        -0.561520
 H        -0.714152        -2.323735         0.334366
 H         0.101547        -1.629962        -1.067937
 H        -1.593685         1.638834         0.476669
 H         0.012619         2.004497        -0.197213
