19
Iteration:  3500charge 0 multiplicity 1
 C        -3.818440         0.832060        -0.947761
 C        -2.480702         0.213759        -1.467365
 C        -2.251470        -0.856804        -2.499177
 C        -1.995552        -1.192405        -0.966280
 C        -0.547737        -1.264789        -0.565940
 C        -0.372672        -0.125781         0.320388
 O        -0.099265        -0.356935         1.510510
 C        -0.747615         1.309598        -0.190647
 O        -1.417313         1.112477        -1.481046
 H        -4.064501         1.753616        -1.465306
 H        -4.738911         0.188526        -1.147835
 H        -3.847816         1.040893         0.102661
 H        -3.059574        -1.303299        -3.111117
 H        -1.317385        -0.766214        -3.186715
 H        -2.690615        -1.877659        -0.525790
 H        -0.308955        -2.178416         0.017919
 H         0.092179        -1.402051        -1.505869
 H        -1.314007         1.782573         0.598164
 H         0.256376         1.711444        -0.283759
