19
Iteration:  3351
 C        -3.982046         0.665637        -1.543022
 C        -2.607186         0.231272        -1.440094
 C        -2.009443        -0.761226        -2.565905
 C        -2.193881        -1.180244        -1.019023
 C        -0.990835        -1.358099        -0.191353
 C        -0.229196        -0.159455         0.361213
 O         0.582287        -0.351166         1.268453
 C        -0.683353         1.246736        -0.100717
 O        -1.719978         1.311601        -1.036830
 H        -3.872938         1.774557        -1.738559
 H        -4.675088         0.358869        -2.341538
 H        -4.481499         0.422719        -0.544543
 H        -2.552278        -1.236705        -3.399094
 H        -0.896918        -0.532711        -2.694249
 H        -2.892564        -1.990440        -0.762801
 H        -1.218231        -1.967157         0.688539
 H        -0.267955        -1.974651        -0.803552
 H        -0.632673         1.988897         0.786947
 H         0.223333         1.606514        -0.737602
