19
Iteration:  2937
 C        -3.657083         0.833596        -0.902341
 C        -2.477039         0.150878        -1.479609
 C        -2.397949        -0.945335        -2.477291
 C        -2.046513        -1.321500        -1.107337
 C        -0.557919        -1.283393        -0.545861
 C        -0.434620        -0.086420         0.452233
 O        -0.071723        -0.057278         1.624844
 C        -0.812950         1.296726        -0.269192
 O        -1.312579         1.019742        -1.591380
 H        -3.793857         1.865653        -1.162962
 H        -4.575855         0.240664        -1.144646
 H        -3.581061         0.720328         0.199359
 H        -3.317204        -1.271060        -3.038889
 H        -1.712933        -0.977994        -3.320480
 H        -2.718677        -1.897670        -0.501435
 H        -0.293589        -2.215893        -0.046431
 H         0.215983        -1.088762        -1.340131
 H        -1.475482         1.832747         0.385020
 H         0.184136         1.687120        -0.450199
