19
Iteration:  2055
 C        -3.911304         0.824357        -1.363224
 C        -2.522960         0.182460        -1.383482
 C        -2.186343        -0.811411        -2.481495
 C        -2.161327        -1.220916        -0.967449
 C        -0.826426        -1.446150        -0.220883
 C        -0.264549        -0.129385         0.354792
 O         0.456098        -0.105325         1.342237
 C        -0.928033         1.240092        -0.122747
 O        -1.416441         1.073701        -1.412236
 H        -4.052367         1.326876        -2.376443
 H        -4.635398         0.070313        -0.998305
 H        -3.835462         1.694550        -0.638680
 H        -3.017496        -1.252325        -3.071302
 H        -1.239631        -0.494886        -2.853319
 H        -3.016048        -1.839914        -0.657058
 H        -0.935482        -2.208177         0.528236
 H        -0.153274        -1.980439        -0.882316
 H        -1.744316         1.505589         0.613633
 H        -0.201254         2.045331        -0.169716
