19
Iteration:  3669charge 0 multiplicity 1
 C        -3.886192         0.794532        -1.138770
 C        -2.481486         0.341352        -1.518681
 C        -2.316249        -0.850484        -2.507517
 C        -2.098623        -1.178536        -1.114408
 C        -0.570505        -1.253516        -0.553100
 C        -0.416173        -0.175669         0.467840
 O         0.161226        -0.415499         1.498468
 C        -0.896565         1.245218         0.022644
 O        -1.260167         1.141882        -1.427860
 H        -4.527351         0.002389        -0.678228
 H        -3.871064         1.567768        -0.398951
 H        -4.547471         1.114242        -2.023183
 H        -3.051484        -1.155951        -3.148133
 H        -1.389956        -0.804667        -3.065908
 H        -2.827378        -1.798864        -0.600092
 H        -0.357062        -2.252620        -0.133181
 H         0.139286        -1.105334        -1.415372
 H        -1.746727         1.728684         0.565345
 H        -0.061941         2.030126         0.037385
