19
Iteration:  1118charge 0 multiplicity 1
 C        -3.821757         0.620965        -2.065799
 C        -2.519718         0.287953        -1.409184
 C        -1.773585        -0.873156        -2.058740
 C        -2.287144        -1.118063        -0.673401
 C        -1.166407        -1.339166         0.226893
 C        -0.309310        -0.178812         0.252939
 O         0.911883        -0.330780         0.351456
 C        -1.123238         1.185781         0.277906
 O        -1.712474         1.394945        -1.010022
 H        -3.561327         1.432036        -2.823293
 H        -4.168497        -0.297573        -2.613760
 H        -4.633578         0.903549        -1.297727
 H        -2.206978        -1.391646        -2.903521
 H        -0.668613        -0.616459        -2.152711
 H        -3.166825        -1.693487        -0.630562
 H        -1.482461        -1.531341         1.263701
 H        -0.653883        -2.233133        -0.178543
 H        -1.956235         1.348389         0.998872
 H        -0.482315         2.064124         0.415276
