19
Iteration:  2415charge 0 multiplicity 1
 C        -3.842906         0.739069        -1.478570
 C        -2.451140         0.132130        -1.543504
 C        -1.983254        -0.842030        -2.598550
 C        -2.139992        -1.257147        -1.015502
 C        -1.165718        -1.349536         0.115187
 C        -0.294417        -0.084583         0.386878
 O         0.783140        -0.173117         0.896981
 C        -1.065423         1.208739         0.139726
 O        -1.596047         1.239004        -1.189800
 H        -4.144768         1.225521        -2.375641
 H        -4.594212        -0.007517        -1.328154
 H        -3.825645         1.443791        -0.650013
 H        -2.648649        -1.175527        -3.338803
 H        -0.941956        -0.805841        -2.924399
 H        -3.015827        -1.854780        -0.835605
 H        -1.623879        -1.456356         1.096750
 H        -0.543162        -2.298125         0.076165
 H        -1.874798         1.394390         0.858471
 H        -0.267130         1.954640         0.186999
