19
Iteration:  2897charge 0 multiplicity 1
 C        -3.507382         0.807889        -0.620635
 C        -2.371692         0.113440        -1.441684
 C        -2.488947        -0.921693        -2.438809
 C        -1.874662        -1.291678        -1.084299
 C        -0.423314        -1.304606        -0.585322
 C        -0.424014        -0.003016         0.383325
 O        -0.557249        -0.099251         1.579253
 C        -0.714458         1.276638        -0.436145
 O        -1.313735         1.006693        -1.699545
 H        -3.559617         1.910153        -0.613467
 H        -4.434797         0.344264        -0.913282
 H        -3.326438         0.601045         0.452365
 H        -3.498773        -1.393806        -2.659423
 H        -1.817628        -0.653296        -3.240991
 H        -2.498390        -1.867241        -0.435550
 H        -0.218321        -2.162329        -0.033982
 H         0.345314        -1.258664        -1.388737
 H        -1.389191         1.971462         0.164053
 H         0.148001         1.890613        -0.572252
