19
Iteration:  2855
 C        -3.668998         0.644018        -0.694830
 C        -2.444295         0.208971        -1.345041
 C        -2.405298        -0.962515        -2.386496
 C        -1.910403        -1.208084        -0.902079
 C        -0.362332        -1.227277        -0.660602
 C        -0.371705        -0.066048         0.338333
 O        -0.769878        -0.156889         1.464285
 C        -0.327876         1.227816        -0.528491
 O        -1.391604         1.153565        -1.538254
 H        -4.169401         1.400899        -1.366710
 H        -4.417884        -0.125848        -0.692119
 H        -3.492545         1.068425         0.334995
 H        -3.368611        -1.401955        -2.539198
 H        -1.633898        -0.921444        -3.080608
 H        -2.610294        -1.674008        -0.246899
 H        -0.032949        -2.096140        -0.105459
 H         0.072695        -1.133910        -1.675212
 H        -0.315075         2.190543         0.024178
 H         0.592852         1.375289        -1.158141
