19
Iteration:  3701charge 0 multiplicity 1
 C        -3.688412         0.972016        -1.325851
 C        -2.457304         0.216544        -1.449412
 C        -2.410128        -0.918143        -2.512497
 C        -2.050841        -1.183688        -1.011767
 C        -0.505676        -1.317047        -0.652690
 C        -0.313064        -0.223098         0.414220
 O         0.237414        -0.281790         1.455529
 C        -1.071285         1.067002         0.085588
 O        -1.477807         1.202331        -1.276896
 H        -4.647196         0.584787        -0.971442
 H        -3.439853         1.830157        -0.779462
 H        -3.790481         1.449522        -2.383310
 H        -3.232768        -1.067931        -3.114971
 H        -1.468066        -0.941306        -3.045256
 H        -2.860361        -1.681866        -0.531705
 H        -0.301386        -2.320586        -0.206860
 H         0.176746        -0.869635        -1.438910
 H        -1.909085         1.027607         0.692485
 H        -0.538189         1.918866         0.520122
