19
Iteration:  2389charge 0 multiplicity 1
 C        -4.002593         0.677573        -1.475346
 C        -2.539348         0.272530        -1.587232
 C        -2.131357        -0.901219        -2.506405
 C        -2.211115        -1.174588        -1.064309
 C        -1.073800        -1.246777        -0.094194
 C        -0.222368        -0.036253         0.460041
 O         0.811299        -0.160353         1.130293
 C        -0.969558         1.161534         0.148557
 O        -1.425320         1.114058        -1.272175
 H        -4.292515         1.494711        -2.210683
 H        -4.485023        -0.167896        -2.013005
 H        -4.356975         0.854158        -0.447683
 H        -2.855222        -1.417822        -3.206346
 H        -1.124894        -0.922387        -2.917030
 H        -3.130005        -1.776087        -0.801071
 H        -1.389623        -1.636556         0.878746
 H        -0.343402        -1.964548        -0.459165
 H        -1.920578         1.222298         0.756285
 H        -0.268735         2.058420         0.274024
