19
Iteration:  3345charge 0 multiplicity 1
 C        -3.983227         0.722244        -1.536175
 C        -2.581215         0.207190        -1.396157
 C        -1.927152        -0.728108        -2.503563
 C        -2.179625        -1.177416        -1.046478
 C        -0.976619        -1.392254        -0.151361
 C        -0.273817        -0.165992         0.332901
 O         0.581122        -0.340464         1.216298
 C        -0.703167         1.203797        -0.135342
 O        -1.774186         1.309395        -1.051133
 H        -3.945012         1.792279        -1.750360
 H        -4.560557         0.217104        -2.313901
 H        -4.540572         0.747161        -0.598038
 H        -2.429020        -1.166256        -3.343981
 H        -0.915223        -0.420071        -2.558142
 H        -2.903981        -1.981578        -0.754029
 H        -1.264378        -2.015688         0.738424
 H        -0.183678        -2.003472        -0.646438
 H        -0.593481         1.821160         0.744396
 H         0.100592         1.505037        -0.756896
