19
Iteration:  3137charge 0 multiplicity 1
 C        -3.851146         0.747438        -2.000044
 C        -2.522951         0.242020        -1.421166
 C        -1.654504        -0.811136        -2.160244
 C        -2.221007        -1.180505        -0.781617
 C        -1.235168        -1.402537         0.317690
 C        -0.353899        -0.176684         0.367740
 O         0.872309        -0.264249         0.208371
 C        -1.151759         1.104588         0.343045
 O        -1.663138         1.355621        -0.973933
 H        -3.591382         1.827239        -2.097524
 H        -3.836591         0.463552        -2.996158
 H        -4.715442         0.415933        -1.410499
 H        -2.380939        -1.043166        -2.983089
 H        -0.587252        -0.751894        -2.338074
 H        -3.206280        -1.871387        -0.776210
 H        -1.805368        -1.526286         1.235651
 H        -0.640660        -2.293523         0.088547
 H        -1.924615         1.032022         1.129077
 H        -0.574938         2.042688         0.556568
