19
Iteration:  4296charge 0 multiplicity 1
 C        -3.869989         0.713016        -1.777636
 C        -2.525058         0.223848        -1.471361
 C        -1.817682        -0.641732        -2.396536
 C        -2.238826        -1.230225        -1.087474
 C        -1.215674        -1.422516         0.120931
 C        -0.324928        -0.186509         0.399127
 O         0.802143        -0.401964         0.848398
 C        -0.732184         1.177271         0.061448
 O        -1.889650         1.377204        -0.888804
 H        -4.517449        -0.080922        -2.250357
 H        -4.293865         1.310491        -0.834910
 H        -3.678685         1.434854        -2.628228
 H        -2.235382        -0.898280        -3.346145
 H        -0.717965        -0.506708        -2.507113
 H        -2.929274        -2.106724        -1.222525
 H        -2.020907        -1.350686         0.886649
 H        -0.692868        -2.423316         0.009661
 H        -0.889024         1.851298         0.949196
 H         0.250439         1.598188        -0.424292
