19
Iteration:  4675
 C        -4.055528         0.709189        -1.523342
 C        -2.607160         0.300514        -1.482621
 C        -1.678876        -0.466963        -2.472804
 C        -2.187685        -1.162262        -1.179194
 C        -1.207429        -1.504066        -0.000137
 C        -0.297008        -0.234409         0.402351
 O         0.599533        -0.310737         1.240594
 C        -0.566253         1.000172        -0.437433
 O        -1.840397         1.304994        -0.821005
 H        -4.796443         0.144342        -2.059989
 H        -4.220511         1.041869        -0.390214
 H        -4.033546         1.629444        -2.041222
 H        -1.889541        -0.766331        -3.509289
 H        -0.584051        -0.373987        -2.384225
 H        -2.983385        -1.997572        -1.372520
 H        -1.743194        -1.909553         0.845973
 H        -0.474497        -2.231650        -0.040317
 H        -0.197772         1.928661         0.066720
 H         0.149866         0.953585        -1.329987
