19
Iteration:  2952charge 0 multiplicity 1
 C        -3.766311         0.747144        -1.053044
 C        -2.435933         0.120102        -1.467242
 C        -2.335400        -0.942862        -2.539749
 C        -2.082823        -1.208238        -0.975520
 C        -0.681555        -1.282604        -0.521291
 C        -0.376750        -0.061374         0.448723
 O         0.046694        -0.100208         1.560578
 C        -0.701412         1.216742        -0.229827
 O        -1.398235         1.085189        -1.480831
 H        -3.862068         1.597497        -1.764350
 H        -4.675336         0.214701        -1.281877
 H        -3.850889         1.007208         0.027535
 H        -3.246914        -1.387941        -2.922810
 H        -1.372772        -0.920040        -3.104166
 H        -2.908199        -1.758549        -0.493121
 H        -0.375653        -2.225368        -0.105083
 H        -0.076685        -1.033134        -1.386211
 H        -1.394297         1.830478         0.425906
 H         0.127931         1.875909        -0.449405
