19
Iteration:   143
 C        -3.641544         0.439813        -0.569643
 C        -2.470794         0.009971        -1.479156
 C        -2.584976        -1.026018        -2.459873
 C        -2.002822        -1.300445        -1.079268
 C        -0.621789        -1.265545        -0.454689
 C        -0.427341         0.179938         0.362861
 O        -0.231612         0.354467         1.576211
 C        -0.564399         1.332406        -0.493229
 O        -1.225682         0.858498        -1.750241
 H        -4.563314         0.310348        -1.127061
 H        -3.669286        -0.063398         0.383353
 H        -3.510182         1.533844        -0.291585
 H        -3.541444        -1.292069        -2.909347
 H        -1.826238        -0.914120        -3.241470
 H        -2.604172        -1.748843        -0.418532
 H        -0.606087        -2.044512         0.265381
 H         0.272711        -1.397940        -1.048953
 H        -1.135213         2.096369        -0.019734
 H         0.434331         1.709330        -0.582915
