19
Iteration:  4083charge 0 multiplicity 1
 C        -3.853224         0.734833        -1.661938
 C        -2.472890         0.243787        -1.398537
 C        -1.849299        -0.718559        -2.348124
 C        -2.322370        -1.170081        -1.062787
 C        -1.033980        -1.536436        -0.153110
 C        -0.325641        -0.218616         0.279556
 O         0.585747        -0.348051         1.105951
 C        -0.665707         1.234175        -0.125594
 O        -1.878168         1.392500        -0.902386
 H        -4.323778         0.065994        -2.362288
 H        -4.263771         0.778908        -0.682010
 H        -3.627270         1.795461        -2.034176
 H        -2.369693        -0.811298        -3.347412
 H        -0.797515        -0.812893        -2.369299
 H        -3.197054        -1.889517        -0.821300
 H        -1.401621        -1.964041         0.775531
 H        -0.372048        -2.170727        -0.749293
 H        -0.797884         1.822502         0.771580
 H         0.280462         1.678458        -0.620415
