19
Iteration:  3687
 C        -3.753609         0.937589        -1.236787
 C        -2.424542         0.188621        -1.505496
 C        -2.268992        -0.869764        -2.517681
 C        -2.058080        -1.131146        -1.009232
 C        -0.634286        -1.249922        -0.645361
 C        -0.340211        -0.199282         0.403182
 O         0.178843        -0.338296         1.480128
 C        -1.028195         1.120121         0.043705
 O        -1.403481         1.178087        -1.321715
 H        -4.396976         0.244452        -0.683671
 H        -3.583688         1.785327        -0.589681
 H        -4.221753         1.315005        -2.142126
 H        -3.279553        -1.247809        -2.817975
 H        -1.420469        -0.935027        -3.247013
 H        -2.619389        -1.742604        -0.272878
 H        -0.317850        -2.276203        -0.358792
 H        -0.027230        -1.148902        -1.562962
 H        -1.870644         1.116112         0.718666
 H        -0.389668         1.924780         0.199910
