19
Iteration:   932charge 0 multiplicity 1
 C        -3.655098         0.838783        -1.024930
 C        -2.401400         0.100421        -1.401939
 C        -2.578644        -1.125006        -2.270404
 C        -1.861531        -1.234320        -0.896511
 C        -0.343532        -1.213265        -0.712934
 C        -0.392559        -0.037575         0.344291
 O        -0.350891        -0.259736         1.523478
 C        -0.756600         1.329081        -0.273051
 O        -1.326103         1.213132        -1.559460
 H        -4.064008         1.345648        -1.921434
 H        -4.374408         0.052770        -0.752553
 H        -3.485585         1.496118        -0.206835
 H        -3.637614        -1.555680        -2.120767
 H        -2.039837        -1.336712        -3.219190
 H        -2.316894        -1.824153        -0.080310
 H         0.026417        -2.276454        -0.447730
 H         0.241810        -0.900900        -1.674689
 H        -1.502014         1.724195         0.445738
 H         0.026241         2.152568        -0.459869
