19
Iteration:  3590charge 0 multiplicity 1
 C        -3.832373         0.651829        -0.927662
 C        -2.439212         0.211421        -1.420129
 C        -2.130478        -0.624135        -2.538239
 C        -2.006900        -1.205004        -1.094787
 C        -0.624396        -1.375142        -0.475282
 C        -0.393290        -0.121001         0.368292
 O        -0.205867        -0.316730         1.534579
 C        -0.480471         1.109715        -0.453203
 O        -1.592148         1.307569        -1.296219
 H        -4.636170         0.347454        -1.646747
 H        -4.099399         0.183396        -0.009682
 H        -3.906403         1.750939        -0.704408
 H        -2.780927        -1.098132        -3.371849
 H        -1.170311        -0.226231        -2.887283
 H        -2.815946        -1.897776        -0.626670
 H        -0.723740        -2.297111         0.172986
 H         0.219023        -1.651625        -1.195294
 H        -0.670538         1.938527         0.189727
 H         0.399514         1.357998        -1.072387
