19
Iteration:  1517charge 0 multiplicity 1
 C        -3.719198         0.800458        -0.771629
 C        -2.491157         0.057259        -1.361651
 C        -2.316851        -0.849949        -2.535017
 C        -1.934582        -1.342649        -1.132514
 C        -0.542993        -1.313242        -0.533563
 C        -0.460828        -0.098606         0.361797
 O        -0.337645         0.001520         1.576561
 C        -0.397485         1.165213        -0.522626
 O        -1.520885         1.102739        -1.387436
 H        -4.164380         1.476629        -1.620327
 H        -4.571103         0.164186        -0.345011
 H        -3.361018         1.505873         0.020826
 H        -3.300572        -1.183979        -2.866759
 H        -1.557281        -0.499863        -3.234673
 H        -2.664027        -2.019805        -0.733870
 H        -0.478271        -2.149477         0.183507
 H         0.330212        -1.310880        -1.077599
 H        -0.460521         2.094309        -0.005457
 H         0.478007         1.261248        -1.236568
