19
Iteration:  2782
 C        -3.821372         0.690489        -0.925086
 C        -2.499141         0.223077        -1.495191
 C        -2.288263        -0.956750        -2.529392
 C        -2.086293        -1.255343        -1.053537
 C        -0.677349        -1.231794        -0.481845
 C        -0.354798        -0.040452         0.444819
 O         0.011568        -0.147714         1.599462
 C        -0.603751         1.250279        -0.299239
 O        -1.453440         1.107664        -1.549217
 H        -4.549386         1.084067        -1.658804
 H        -4.316575        -0.082104        -0.321670
 H        -3.608784         1.598516        -0.343316
 H        -3.079028        -1.558623        -2.873879
 H        -1.410821        -0.769143        -3.098421
 H        -2.888412        -1.885612        -0.649292
 H        -0.518595        -2.264031         0.039964
 H         0.040759        -1.196197        -1.333102
 H        -0.905148         2.105889         0.258890
 H         0.448487         1.485785        -0.587522
