19
Iteration:  4181
 C        -3.923651         0.687685        -1.575236
 C        -2.489394         0.229118        -1.484816
 C        -1.600705        -0.604831        -2.477387
 C        -2.207610        -1.148831        -1.215324
 C        -1.341878        -1.429002        -0.010064
 C        -0.251680        -0.172198         0.279728
 O         0.570512        -0.307582         1.183129
 C        -0.521485         1.113897        -0.456440
 O        -1.973943         1.242334        -0.577622
 H        -4.511559        -0.187203        -1.683075
 H        -3.975299         0.862627        -0.565841
 H        -4.211383         1.583552        -2.187465
 H        -2.062313        -0.796300        -3.398583
 H        -0.514622        -0.338623        -2.489646
 H        -3.180650        -1.753318        -1.389611
 H        -1.886284        -1.340103         0.923074
 H        -0.674655        -2.273351        -0.020267
 H        -0.179662         2.040349         0.084643
 H        -0.136492         1.164610        -1.503789
