19
Iteration:  2923
 C        -3.626506         0.847941        -0.729054
 C        -2.409530         0.128746        -1.500973
 C        -2.497016        -0.939666        -2.555391
 C        -1.866660        -1.259490        -1.098472
 C        -0.503565        -1.272944        -0.507939
 C        -0.508039        -0.009977         0.393091
 O        -0.221915        -0.090398         1.593319
 C        -0.841432         1.205554        -0.319439
 O        -1.261107         0.963230        -1.643971
 H        -3.640299         1.967837        -0.900255
 H        -4.592915         0.434414        -1.086774
 H        -3.526634         0.807368         0.378664
 H        -3.402302        -1.446892        -2.542903
 H        -1.778882        -0.642677        -3.319754
 H        -2.617638        -1.881834        -0.513914
 H        -0.290265        -2.202385         0.169449
 H         0.269010        -1.231239        -1.293162
 H        -1.522434         1.903134         0.183485
 H         0.036001         1.947492        -0.294141
