19
Iteration:  2834
 C        -3.854295         0.670533        -0.842558
 C        -2.395528         0.245024        -1.250272
 C        -2.467986        -0.893210        -2.342602
 C        -1.814580        -1.254195        -0.957730
 C        -0.330739        -1.341617        -0.545668
 C        -0.376125        -0.113011         0.277779
 O        -0.649764        -0.131492         1.446158
 C        -0.334448         1.204420        -0.560133
 O        -1.422442         1.229622        -1.497975
 H        -4.506234         1.015445        -1.681162
 H        -4.407636        -0.120712        -0.370140
 H        -3.719317         1.405405        -0.018608
 H        -3.419613        -1.224767        -2.682099
 H        -1.744161        -0.688677        -3.055392
 H        -2.365097        -1.900940        -0.303525
 H        -0.281239        -2.281924         0.038621
 H         0.386983        -1.307867        -1.411379
 H        -0.443441         1.977899         0.201476
 H         0.694151         1.376492        -1.074374
