19
Iteration:  1794
 C        -3.816749         0.780358        -1.986979
 C        -2.537737         0.214743        -1.378087
 C        -1.765468        -0.823289        -2.041824
 C        -2.413992        -1.218572        -0.725928
 C        -1.198699        -1.411313         0.179985
 C        -0.270658        -0.168639         0.265612
 O         0.920788        -0.299686         0.537826
 C        -0.948514         1.211005         0.069155
 O        -1.787460         1.318208        -1.045013
 H        -3.550973         1.802779        -2.253171
 H        -4.225898         0.260491        -2.839746
 H        -4.752991         0.739741        -1.447881
 H        -1.981860        -0.988471        -3.132814
 H        -0.664929        -0.887244        -1.921921
 H        -3.293273        -1.805898        -0.623106
 H        -1.547511        -1.618978         1.193120
 H        -0.610726        -2.249028        -0.178420
 H        -1.606737         1.390709         1.002997
 H        -0.284851         2.079246        -0.114217
