19
Iteration:  2335
 C        -3.889342         0.880979        -1.400689
 C        -2.538195         0.143554        -1.520827
 C        -2.229572        -1.134469        -2.454241
 C        -2.180724        -1.285403        -0.928673
 C        -0.737600        -1.332844        -0.351539
 C        -0.271865        -0.051734         0.353304
 O         0.392799        -0.069656         1.367970
 C        -0.793995         1.216530        -0.098476
 O        -1.522865         1.190147        -1.277959
 H        -3.503325         1.921505        -1.427752
 H        -4.687559         0.696589        -2.119391
 H        -4.304806         0.792673        -0.405668
 H        -3.122884        -1.391769        -3.068389
 H        -1.281648        -1.242614        -3.026402
 H        -2.999138        -1.893285        -0.446576
 H        -0.558872        -2.044032         0.429567
 H        -0.054162        -1.358029        -1.157223
 H        -1.536858         1.386264         0.697188
 H         0.010210         1.997279         0.061151
