19
Iteration:  1919
 C        -3.879884         0.635604        -1.642758
 C        -2.385938         0.249783        -1.538651
 C        -1.716365        -0.812608        -2.377137
 C        -2.197912        -1.140657        -0.913773
 C        -1.307458        -1.223204         0.290568
 C        -0.352952        -0.141405         0.280320
 O         0.819961        -0.384656         0.512118
 C        -1.110873         1.203636         0.253586
 O        -1.577975         1.262260        -1.083072
 H        -4.140531         1.213074        -2.530825
 H        -4.531250        -0.239922        -1.804551
 H        -4.218380         1.279020        -0.804768
 H        -2.335580        -1.265761        -3.159882
 H        -0.718544        -0.514721        -2.581867
 H        -3.098364        -1.820587        -0.958821
 H        -1.906728        -1.077678         1.136311
 H        -0.884569        -2.230560         0.392921
 H        -1.966025         1.299172         0.974002
 H        -0.449751         2.091589         0.389370
