19
Iteration:  3987
 C        -3.806720         0.841529        -1.434302
 C        -2.388200         0.278590        -1.517129
 C        -1.915337        -0.763616        -2.512570
 C        -2.270231        -1.147926        -1.083762
 C        -1.094026        -1.458567        -0.048505
 C        -0.370288        -0.244068         0.364540
 O         0.737961        -0.255075         0.928959
 C        -1.171396         1.082277         0.213597
 O        -1.492343         1.304470        -1.196138
 H        -4.596437         0.087004        -1.570481
 H        -3.972929         1.356943        -0.425009
 H        -3.930106         1.672022        -2.198661
 H        -2.575984        -1.113066        -3.352684
 H        -0.861851        -0.727543        -2.635884
 H        -3.054146        -1.891036        -1.051797
 H        -1.627252        -1.812877         0.858588
 H        -0.332238        -2.218649        -0.445751
 H        -2.039926         0.853924         0.882346
 H        -0.544144         1.979819         0.581668
