19
Iteration:  4831
 C        -3.939172         0.586742        -1.661855
 C        -2.518207         0.297190        -1.444988
 C        -1.661304        -0.570757        -2.481934
 C        -2.182907        -1.124347        -1.209318
 C        -1.341223        -1.243359         0.117320
 C        -0.247908        -0.178092         0.384199
 O         0.642975        -0.557236         1.109227
 C        -0.562665         1.173339        -0.492644
 O        -1.926563         1.304036        -0.583066
 H        -4.338587        -0.295388        -2.226024
 H        -4.484717         0.586266        -0.699324
 H        -4.071951         1.613265        -2.129523
 H        -2.214757        -0.653166        -3.461092
 H        -0.632900        -0.489756        -2.734054
 H        -2.976835        -1.906848        -1.269154
 H        -1.998916        -0.997940         0.926139
 H        -0.849634        -2.176202         0.220338
 H        -0.167785         1.987697         0.086387
 H        -0.105166         1.121424        -1.475981
