19
Iteration:   626charge 0 multiplicity 1
 C        -4.025345         0.446404        -1.634594
 C        -2.526953         0.197251        -1.521747
 C        -1.925364        -0.955261        -2.380801
 C        -2.189220        -1.142893        -0.901513
 C        -1.120339        -1.270890         0.056412
 C        -0.236266        -0.076425         0.354561
 O         0.891571        -0.228077         0.820727
 C        -0.956090         1.289872         0.124153
 O        -1.675825         1.396782        -1.177379
 H        -4.306157         1.513996        -1.936948
 H        -4.405348        -0.301930        -2.374735
 H        -4.521242         0.324035        -0.671200
 H        -2.579242        -1.409176        -3.093642
 H        -0.888867        -1.032238        -2.582951
 H        -3.071369        -1.710658        -0.591684
 H        -1.449463        -1.590973         1.035992
 H        -0.367722        -1.931105        -0.192358
 H        -1.663969         1.488775         0.984085
 H        -0.243847         2.135473         0.120402
