19
Iteration:  4358charge 0 multiplicity 1
 C        -3.850324         0.577189        -1.893807
 C        -2.509975         0.287725        -1.386464
 C        -1.548904        -0.642390        -2.269796
 C        -2.297816        -1.165973        -1.041695
 C        -1.427082        -1.348064         0.178342
 C        -0.315121        -0.231395         0.274568
 O         0.796005        -0.525032         0.662151
 C        -0.680276         1.281180        -0.078937
 O        -1.961393         1.419368        -0.659002
 H        -4.270127        -0.307136        -2.438764
 H        -4.641911         0.853612        -1.174617
 H        -3.721863         1.354999        -2.599447
 H        -1.940166        -0.725108        -3.320342
 H        -0.426856        -0.651931        -2.100463
 H        -3.053919        -1.888851        -1.174759
 H        -2.069571        -1.372984         1.059025
 H        -0.812402        -2.261157         0.478059
 H        -0.678228         1.865286         0.826813
 H        -0.003869         1.754736        -0.825053
