19
Iteration:   257charge 0 multiplicity 1
 C        -3.978377         0.702249        -1.384581
 C        -2.593441         0.084242        -1.469421
 C        -2.300661        -1.158804        -2.308993
 C        -2.080083        -1.166385        -0.796417
 C        -0.638357        -1.186762        -0.341595
 C        -0.242505         0.032565         0.400806
 O         0.441777        -0.046439         1.443237
 C        -0.785340         1.239965        -0.280483
 O        -1.594915         1.131779        -1.484332
 H        -4.711199         0.035916        -0.880858
 H        -3.886746         1.674274        -0.884618
 H        -4.376468         0.864647        -2.347119
 H        -3.063630        -1.697691        -2.804260
 H        -1.411164        -1.222251        -2.955260
 H        -2.846795        -1.726141        -0.141320
 H        -0.350253        -2.041975         0.296249
 H        -0.025238        -1.355961        -1.261633
 H        -1.325947         1.740359         0.491061
 H         0.056174         1.835132        -0.521613
