19
Iteration:  1255
 C        -3.885769         0.601138        -1.852675
 C        -2.436484         0.233524        -1.442987
 C        -1.726225        -0.838733        -2.253837
 C        -2.307526        -1.139785        -0.877911
 C        -1.283588        -1.217164         0.338191
 C        -0.340779        -0.121355         0.318515
 O         0.853988        -0.366585         0.376269
 C        -1.040794         1.226035         0.258786
 O        -1.600448         1.295722        -1.034433
 H        -3.940642         1.557101        -2.385719
 H        -4.300976        -0.173876        -2.502038
 H        -4.528803         0.631304        -1.026643
 H        -2.277200        -1.350751        -3.052408
 H        -0.649836        -0.559894        -2.371883
 H        -3.243982        -1.725335        -0.887201
 H        -2.053752        -1.181465         1.185315
 H        -0.708627        -2.177068         0.291242
 H        -1.646154         1.170667         1.153679
 H        -0.251632         2.052496         0.412168
