19
Iteration:    37
 C        -4.002213         0.464396        -1.232176
 C        -2.503698         0.166938        -1.443713
 C        -2.389229        -1.128037        -2.209509
 C        -2.051931        -1.113908        -0.761312
 C        -0.583464        -1.143796        -0.507762
 C        -0.263200        -0.013877         0.421945
 O         0.068432        -0.104454         1.580456
 C        -0.472443         1.287681        -0.504814
 O        -1.534715         1.233163        -1.553247
 H        -4.298864         0.232834        -0.243490
 H        -4.174785         1.515351        -1.266131
 H        -4.635695        -0.139176        -1.955037
 H        -3.426404        -1.471681        -2.383084
 H        -1.560636        -1.363759        -2.958830
 H        -2.708145        -1.611222        -0.088418
 H        -0.276443        -2.066956        -0.004102
 H         0.032062        -0.995557        -1.438214
 H        -0.618599         2.237384         0.073541
 H         0.495469         1.410429        -1.154716
