19
Iteration:  2721charge 0 multiplicity 1
 C        -3.813572         0.964609        -1.385987
 C        -2.488715         0.161284        -1.543808
 C        -2.321048        -1.038536        -2.426711
 C        -2.137841        -1.210940        -0.965448
 C        -0.728046        -1.379921        -0.360136
 C        -0.293772        -0.092728         0.416171
 O         0.528856        -0.007160         1.273967
 C        -1.037563         1.098706         0.073670
 O        -1.466553         1.086762        -1.336983
 H        -3.571374         1.907742        -1.879894
 H        -4.748593         0.610673        -1.912862
 H        -4.030520         1.074411        -0.319106
 H        -3.097139        -1.525411        -3.069851
 H        -1.294049        -1.081555        -2.985173
 H        -2.962521        -1.665223        -0.339363
 H        -0.658938        -2.151416         0.381854
 H        -0.028216        -1.621347        -1.174401
 H        -2.009329         1.126086         0.651280
 H        -0.555753         2.054807         0.123903
