19
Iteration:  2393charge 0 multiplicity 1
 C        -3.968701         0.664926        -1.473971
 C        -2.541834         0.244164        -1.610472
 C        -2.102164        -0.930173        -2.512885
 C        -2.239051        -1.144405        -1.105997
 C        -1.099558        -1.241850        -0.107263
 C        -0.199825        -0.063009         0.459697
 O         0.817655        -0.153612         1.103503
 C        -0.971183         1.197244         0.174890
 O        -1.449177         1.112489        -1.229393
 H        -4.227237         1.407403        -2.193588
 H        -4.566614        -0.158825        -1.827101
 H        -4.264201         0.950387        -0.472518
 H        -2.848609        -1.377974        -3.100273
 H        -1.127659        -0.907816        -2.951824
 H        -3.141106        -1.693387        -0.893546
 H        -1.502579        -1.554618         0.863159
 H        -0.326562        -2.061563        -0.149895
 H        -1.857676         1.251825         0.773981
 H        -0.358461         2.115447         0.232393
