19
Iteration:   194
 C        -3.796052         0.893113        -0.981019
 C        -2.534219         0.040580        -1.476393
 C        -2.342973        -1.252806        -2.246465
 C        -1.926095        -1.212048        -0.841847
 C        -0.395597        -1.233541        -0.500032
 C        -0.322560         0.063500         0.348691
 O        -0.033185        -0.012012         1.517289
 C        -0.850571         1.290452        -0.426692
 O        -1.522342         1.016513        -1.671122
 H        -4.719048         0.629557        -1.586349
 H        -3.999062         0.659839         0.096727
 H        -3.622631         1.965797        -1.061253
 H        -3.151049        -1.879722        -2.454445
 H        -1.604865        -1.223622        -3.035027
 H        -2.588013        -1.799883        -0.155082
 H        -0.129954        -2.079173         0.134784
 H         0.268570        -1.262484        -1.426189
 H        -1.516219         1.988860         0.198906
 H         0.137724         1.887686        -0.610276
