19
Iteration:  3309
 C        -3.990978         0.707793        -1.652398
 C        -2.551668         0.245410        -1.432775
 C        -1.764731        -0.603003        -2.438051
 C        -2.189716        -1.166500        -1.104156
 C        -1.117843        -1.546856         0.034787
 C        -0.270001        -0.318669         0.313996
 O         0.710156        -0.204387         1.057290
 C        -0.654349         1.074564        -0.178505
 O        -1.943534         1.411670        -0.834693
 H        -4.241195         1.214830        -2.652847
 H        -4.484050        -0.267862        -1.659419
 H        -4.412223         1.194892        -0.710335
 H        -2.106080        -0.863374        -3.440807
 H        -0.686334        -0.271896        -2.483404
 H        -3.190423        -1.703493        -1.188064
 H        -1.671407        -1.888597         0.963091
 H        -0.395981        -2.412438        -0.305205
 H        -0.504261         1.903531         0.570103
 H         0.077309         1.104097        -0.994367
