19
Iteration:  1347charge 0 multiplicity 1
 C        -3.969234         0.617880        -1.456229
 C        -2.481584         0.243703        -1.480074
 C        -2.211375        -0.873075        -2.466184
 C        -2.210731        -1.134194        -0.892966
 C        -0.910209        -1.355390        -0.195056
 C        -0.338885        -0.119449         0.472186
 O         0.516052        -0.297313         1.313079
 C        -0.732396         1.292629        -0.147268
 O        -1.478266         1.252768        -1.390154
 H        -4.160368         1.208543        -2.336057
 H        -4.613777        -0.221680        -1.215127
 H        -3.986635         1.333226        -0.580620
 H        -3.058495        -1.181087        -3.003827
 H        -1.213266        -0.826586        -2.910197
 H        -3.084659        -1.630620        -0.436695
 H        -0.854440        -2.160762         0.613784
 H        -0.017250        -1.505530        -0.900571
 H        -1.324530         1.854196         0.596401
 H         0.149571         1.808401        -0.445215
