19
Iteration:  3731
 C        -3.901105         0.974596        -1.465658
 C        -2.518577         0.288787        -1.510502
 C        -2.338417        -0.847453        -2.463418
 C        -2.038933        -1.171367        -1.078492
 C        -0.651795        -1.248054        -0.540329
 C        -0.368648        -0.182168         0.471456
 O         0.448005        -0.342867         1.420045
 C        -1.030373         1.153222         0.158736
 O        -1.377541         1.030256        -1.255306
 H        -4.684537         0.261480        -1.742962
 H        -4.135247         1.349663        -0.486854
 H        -3.803316         1.865012        -2.086370
 H        -3.304950        -1.148605        -2.867465
 H        -1.477779        -0.814345        -3.216752
 H        -2.767227        -1.907665        -0.752345
 H        -0.423107        -2.249797        -0.132388
 H         0.233133        -1.064543        -1.191442
 H        -2.008377         1.190335         0.765482
 H        -0.389386         1.930953         0.383923
