19
Iteration:  3816
 C        -3.939436         0.746815        -1.306697
 C        -2.521597         0.182082        -1.513797
 C        -1.981893        -0.546674        -2.649169
 C        -2.157072        -1.219653        -1.272610
 C        -1.109783        -1.392723        -0.126172
 C        -0.275874        -0.201737         0.481285
 O         0.598854        -0.345569         1.319433
 C        -0.785257         1.140931        -0.066128
 O        -1.591225         1.257734        -1.211319
 H        -4.635429        -0.082196        -1.631014
 H        -4.223715         0.902520        -0.176293
 H        -4.321152         1.556792        -1.899987
 H        -2.407711        -1.100340        -3.482371
 H        -0.936544        -0.072402        -2.846716
 H        -2.942425        -1.922515        -1.124355
 H        -1.693405        -1.705325         0.740902
 H        -0.292066        -2.029616        -0.344959
 H        -1.298435         1.535635         0.775761
 H         0.070705         1.842560        -0.140428
