19
Iteration:  2794
 C        -3.811791         0.714876        -0.909146
 C        -2.542549         0.095814        -1.473702
 C        -2.322528        -0.904528        -2.479700
 C        -2.050105        -1.265645        -1.051597
 C        -0.583616        -1.282861        -0.511877
 C        -0.353722        -0.086473         0.397399
 O        -0.150888        -0.111962         1.606841
 C        -0.489461         1.232947        -0.421560
 O        -1.464328         1.177693        -1.480628
 H        -4.505344         0.925245        -1.719162
 H        -4.293074         0.013632        -0.176251
 H        -3.575596         1.587917        -0.295626
 H        -3.081846        -1.158795        -3.196508
 H        -1.389404        -0.772618        -3.067354
 H        -2.737517        -1.749726        -0.321235
 H        -0.292413        -2.186158         0.167973
 H         0.159579        -1.208058        -1.304936
 H        -0.842512         1.882306         0.384790
 H         0.410725         1.595504        -0.925449
