19
Iteration:  1830
 C        -3.836180         0.811194        -2.207987
 C        -2.502371         0.255240        -1.488102
 C        -1.973477        -1.066582        -2.275051
 C        -2.284153        -1.150326        -0.832709
 C        -1.201170        -1.291117         0.280674
 C        -0.208471        -0.179283         0.346739
 O         1.016590        -0.241445         0.432869
 C        -0.944913         1.150165         0.304217
 O        -1.855658         1.333210        -0.775437
 H        -3.559990         1.757560        -2.695424
 H        -4.056286         0.086084        -3.036475
 H        -4.570008         1.064541        -1.372454
 H        -2.776550        -1.297684        -2.952474
 H        -0.941132        -1.347247        -2.519049
 H        -3.073341        -1.839436        -0.422324
 H        -1.776485        -1.181721         1.141560
 H        -0.564671        -2.225723         0.406782
 H        -1.457593         1.299647         1.308681
 H        -0.194766         1.900152         0.241492
