19
Iteration:   543charge 0 multiplicity 1
 C        -3.861887         0.506716        -2.032714
 C        -2.580726         0.169269        -1.369384
 C        -1.522756        -0.625845        -2.166551
 C        -2.131474        -1.239350        -0.892720
 C        -1.300332        -1.215159         0.384398
 C        -0.265649        -0.166974         0.265484
 O         0.916839        -0.309995         0.433197
 C        -0.817207         1.203401        -0.243174
 O        -2.192709         1.299275        -0.513828
 H        -3.756210         0.579367        -3.092987
 H        -4.715364        -0.186005        -1.929512
 H        -4.378595         1.361140        -1.584728
 H        -1.821426        -1.060980        -3.174890
 H        -0.487106        -0.276729        -2.262264
 H        -2.823826        -2.012067        -1.138698
 H        -1.998037        -0.953621         1.212761
 H        -0.794395        -2.249917         0.620062
 H        -0.656472         1.910469         0.577880
 H        -0.214822         1.506732        -1.111154
