19
Iteration:  2364charge 0 multiplicity 1
 C        -3.933726         0.716954        -1.507509
 C        -2.541194         0.234058        -1.452448
 C        -2.146059        -0.827935        -2.368650
 C        -2.135944        -1.128141        -0.849486
 C        -0.818473        -1.520934        -0.197954
 C        -0.347475        -0.148543         0.436796
 O         0.630402        -0.121507         1.184559
 C        -1.011860         1.239480        -0.048543
 O        -1.485636         1.151473        -1.371640
 H        -3.752841         1.769657        -1.857355
 H        -4.546954         0.374003        -2.409547
 H        -4.437037         0.755755        -0.496263
 H        -2.933520        -1.225225        -3.018411
 H        -1.141420        -0.708272        -2.893694
 H        -3.057741        -1.608362        -0.614781
 H        -0.860593        -2.256522         0.660764
 H         0.020419        -1.786063        -0.940064
 H        -1.957011         1.493022         0.536271
 H        -0.238220         1.964363         0.042508
