19
Iteration:  3572charge 0 multiplicity 1
 C        -3.926667         0.545408        -0.977025
 C        -2.526813         0.232601        -1.375429
 C        -2.196786        -0.724135        -2.566193
 C        -2.008570        -1.149472        -1.131306
 C        -0.652781        -1.369565        -0.522292
 C        -0.353969        -0.191832         0.381694
 O        -0.233189        -0.274715         1.578324
 C        -0.316921         1.222636        -0.349687
 O        -1.498588         1.342184        -1.294926
 H        -4.703217         0.431265        -1.760406
 H        -4.336252        -0.070429        -0.168468
 H        -4.087157         1.611621        -0.646367
 H        -3.050221        -0.978708        -3.089209
 H        -1.361175        -0.697629        -3.220070
 H        -2.806760        -1.785352        -0.839229
 H        -0.426441        -2.271856         0.015636
 H         0.124088        -1.372899        -1.244997
 H        -0.177929         2.205066         0.240084
 H         0.487041         1.097605        -1.162691
