19
Iteration:  1421
 C        -3.677456         1.004379        -0.889059
 C        -2.503299         0.143461        -1.383901
 C        -2.521017        -1.006040        -2.404746
 C        -1.871174        -1.279903        -1.035897
 C        -0.394588        -1.291985        -0.585419
 C        -0.439979        -0.069093         0.359852
 O        -0.221151        -0.133820         1.548369
 C        -0.807754         1.246070        -0.291510
 O        -1.301014         0.970135        -1.599802
 H        -3.276909         1.954200        -1.239015
 H        -4.577787         0.717611        -1.426229
 H        -3.809047         1.004826         0.161293
 H        -3.442560        -1.509482        -2.404606
 H        -1.963701        -0.803698        -3.324582
 H        -2.417963        -1.942378        -0.368588
 H        -0.307982        -2.310349        -0.059165
 H         0.321808        -1.193809        -1.430558
 H        -1.554576         1.877886         0.285878
 H         0.137045         1.883287        -0.443972
