19
Iteration:  4519charge 0 multiplicity 1
 C        -3.993805         0.646879        -1.917365
 C        -2.543100         0.295135        -1.520743
 C        -1.740389        -0.672603        -2.423459
 C        -2.172815        -1.067885        -1.090543
 C        -1.320570        -1.298936         0.190949
 C        -0.208106        -0.275420         0.418526
 O         0.931510        -0.537757         0.789446
 C        -0.760237         1.178361         0.053595
 O        -1.958125         1.353554        -0.761738
 H        -4.557759        -0.249733        -2.324374
 H        -4.483266         1.048506        -1.034600
 H        -3.743290         1.501531        -2.644695
 H        -2.407214        -0.846516        -3.267168
 H        -0.586709        -0.537844        -2.540229
 H        -2.986865        -1.741069        -1.027857
 H        -1.917148        -0.990138         1.094231
 H        -0.907188        -2.262194         0.265687
 H        -1.038106         1.677944         1.075283
 H         0.110935         1.704533        -0.406638
