19
Iteration:  1860charge 0 multiplicity 1
 C        -3.759697         0.675959        -1.931430
 C        -2.467485         0.191363        -1.433988
 C        -1.757704        -0.893541        -2.190906
 C        -2.361145        -1.144862        -0.796989
 C        -1.332206        -1.240658         0.215398
 C        -0.298646        -0.120332         0.285520
 O         0.917515        -0.337594         0.381043
 C        -1.008034         1.207449         0.248665
 O        -1.764911         1.309319        -0.956527
 H        -3.443892         1.348518        -2.720929
 H        -4.459741        -0.054610        -2.244327
 H        -4.261438         1.262636        -1.202753
 H        -2.096282        -1.211326        -3.172402
 H        -0.653232        -0.759645        -2.281058
 H        -3.180983        -1.797939        -0.620783
 H        -1.817943        -1.333963         1.219380
 H        -0.652653        -2.086848         0.076358
 H        -1.608462         1.041094         1.194409
 H        -0.256662         1.972909         0.350222
