19
Iteration:  4370
 C        -3.801402         0.642055        -1.975486
 C        -2.416815         0.265134        -1.377642
 C        -1.560544        -0.631978        -2.253150
 C        -2.242402        -1.171573        -1.018776
 C        -1.400445        -1.313446         0.248961
 C        -0.434282        -0.185948         0.325392
 O         0.723487        -0.478716         0.556559
 C        -0.649726         1.236714        -0.112395
 O        -2.020712         1.323824        -0.565878
 H        -4.160229        -0.224786        -2.578475
 H        -4.399734         0.748146        -0.995073
 H        -3.888451         1.543841        -2.504680
 H        -1.961041        -1.020667        -3.197925
 H        -0.412279        -0.637545        -2.323286
 H        -3.100389        -1.811800        -1.137276
 H        -2.001532        -1.240041         1.138718
 H        -0.769029        -2.247486        -0.009021
 H        -0.527796         1.894389         0.711858
 H         0.218073         1.413552        -0.828209
