19
Iteration:  4082
 C        -3.854330         0.733840        -1.657869
 C        -2.472782         0.252773        -1.400407
 C        -1.853001        -0.723210        -2.342481
 C        -2.313215        -1.171764        -1.062799
 C        -1.037820        -1.539464        -0.154822
 C        -0.322828        -0.223994         0.271346
 O         0.582784        -0.347704         1.107030
 C        -0.666651         1.229309        -0.126687
 O        -1.877951         1.395522        -0.906232
 H        -4.320210         0.077679        -2.364755
 H        -4.243250         0.795774        -0.704029
 H        -3.611180         1.767630        -2.029314
 H        -2.359378        -0.784206        -3.351916
 H        -0.796607        -0.812261        -2.372387
 H        -3.194943        -1.911518        -0.804570
 H        -1.391412        -1.955043         0.795674
 H        -0.376530        -2.160246        -0.728880
 H        -0.793852         1.834249         0.803175
 H         0.231181         1.725664        -0.600197
