19
Iteration:  4066
 C        -3.925120         0.769297        -1.681329
 C        -2.480917         0.259571        -1.438026
 C        -1.850277        -0.688739        -2.427373
 C        -2.234113        -1.232675        -0.965053
 C        -1.048762        -1.471072        -0.093212
 C        -0.244877        -0.274587         0.200427
 O         0.572456        -0.351347         1.120740
 C        -0.726069         1.164641        -0.100830
 O        -1.797237         1.449361        -0.917783
 H        -4.578433         0.017902        -2.214664
 H        -4.571206         1.002429        -0.737640
 H        -3.998071         1.644491        -2.257168
 H        -2.468819        -1.109189        -3.175483
 H        -0.767774        -0.482252        -2.688167
 H        -3.080074        -1.777698        -0.892694
 H        -1.374627        -1.907035         0.885583
 H        -0.403566        -2.287311        -0.521156
 H        -1.041271         1.348715         0.976077
 H         0.185370         1.700933        -0.388720
