19
Iteration:  1447charge 0 multiplicity 1
 C        -3.656670         0.755551        -0.860682
 C        -2.425394         0.162717        -1.426252
 C        -2.483477        -1.066676        -2.336750
 C        -2.017920        -1.199022        -0.915054
 C        -0.489728        -1.118813        -0.655654
 C        -0.404368        -0.026332         0.390599
 O        -0.429028        -0.233702         1.582166
 C        -0.465474         1.247436        -0.404752
 O        -1.343304         1.087581        -1.631930
 H        -3.413555         1.811392        -0.901965
 H        -4.552064         0.425115        -1.401756
 H        -3.585999         0.453282         0.223826
 H        -3.543938        -1.349648        -2.604608
 H        -1.723594        -1.150852        -3.112464
 H        -2.622883        -1.675079        -0.067687
 H        -0.103060        -2.126256        -0.463806
 H        -0.088428        -0.726717        -1.677761
 H        -0.994048         2.021445         0.194198
 H         0.462916         1.621600        -0.727757
