19
Iteration:  1561charge 0 multiplicity 1
 C        -3.802017         0.597375        -0.950647
 C        -2.455826         0.264948        -1.483143
 C        -2.369746        -0.847696        -2.490807
 C        -2.002603        -1.112369        -1.019682
 C        -0.696334        -1.355851        -0.383243
 C        -0.387325        -0.082534         0.397403
 O        -0.016497        -0.141188         1.558978
 C        -0.653224         1.226871        -0.370012
 O        -1.342152         1.118859        -1.602858
 H        -4.612548         1.081074        -1.633479
 H        -4.285593        -0.271822        -0.401327
 H        -3.743373         1.373338        -0.143187
 H        -3.353447        -1.220626        -2.827446
 H        -1.494680        -0.952270        -3.079760
 H        -2.747195        -1.616643        -0.381441
 H        -0.719169        -2.288907         0.243729
 H         0.051181        -1.502868        -1.116963
 H        -1.131126         1.866057         0.334100
 H         0.357682         1.635993        -0.536070
