19
Iteration:  1562charge 0 multiplicity 1
 C        -3.800510         0.599880        -0.961359
 C        -2.456450         0.265344        -1.480632
 C        -2.378216        -0.848218        -2.491896
 C        -2.004251        -1.116103        -1.012753
 C        -0.692238        -1.358414        -0.380698
 C        -0.381584        -0.089345         0.388858
 O        -0.013962        -0.141562         1.551185
 C        -0.663873         1.223148        -0.358601
 O        -1.334381         1.125711        -1.602120
 H        -4.599145         1.085418        -1.638135
 H        -4.290669        -0.270930        -0.428301
 H        -3.759159         1.379981        -0.150971
 H        -3.356161        -1.232026        -2.796848
 H        -1.510800        -0.941516        -3.081896
 H        -2.772922        -1.626641        -0.374809
 H        -0.680820        -2.267910         0.287348
 H         0.063431        -1.520189        -1.091701
 H        -1.176106         1.888276         0.334675
 H         0.360226         1.678256        -0.525576
