19
Iteration:  1672charge 0 multiplicity 1
 C        -3.853886         0.782236        -1.506072
 C        -2.458477         0.262160        -1.501012
 C        -2.116478        -0.936266        -2.387058
 C        -2.220726        -1.116426        -0.913188
 C        -0.981706        -1.494996        -0.171891
 C        -0.276773        -0.190646         0.323041
 O         0.637648        -0.077517         1.122635
 C        -0.965979         1.081466         0.028261
 O        -1.490033         1.312183        -1.254938
 H        -3.976279         1.487670        -2.396125
 H        -4.546641        -0.088925        -1.772561
 H        -4.285578         1.242317        -0.550964
 H        -2.966489        -1.229622        -2.965921
 H        -1.188114        -1.199300        -2.908170
 H        -3.140020        -1.643338        -0.599674
 H        -1.201988        -1.973177         0.798377
 H        -0.310650        -2.121095        -0.690603
 H        -1.799607         1.226551         0.661700
 H        -0.258158         1.936021         0.233582
