19
Iteration:  1012
 C        -3.868022         0.655699        -1.285439
 C        -2.436709         0.243125        -1.522936
 C        -2.245587        -0.894175        -2.516617
 C        -2.177803        -1.147727        -1.026856
 C        -0.905447        -1.450421        -0.216893
 C        -0.367271        -0.141251         0.445154
 O         0.454092         0.015928         1.312400
 C        -0.779969         1.124781        -0.076143
 O        -1.428198         1.197241        -1.375815
 H        -4.227320         1.407461        -1.908666
 H        -4.533177        -0.148146        -1.417777
 H        -4.058881         1.035872        -0.280784
 H        -3.112685        -1.189151        -3.050546
 H        -1.349309        -0.877130        -3.182735
 H        -3.014268        -1.728878        -0.653508
 H        -1.056879        -2.217142         0.561944
 H        -0.087955        -1.754466        -0.834662
 H        -1.444153         1.678787         0.652777
 H         0.032460         1.741301        -0.314192
