19
Iteration:  2231
 C        -3.760027         0.747423        -0.772174
 C        -2.458292         0.171160        -1.416710
 C        -2.379525        -0.910196        -2.414400
 C        -1.881839        -1.238602        -1.081621
 C        -0.492549        -1.294710        -0.584362
 C        -0.523799        -0.043888         0.397078
 O        -0.253906        -0.102586         1.604105
 C        -0.692635         1.211591        -0.372234
 O        -1.337023         1.082255        -1.680725
 H        -4.327759         1.146289        -1.648149
 H        -4.414425        -0.006662        -0.292066
 H        -3.508540         1.567196        -0.029364
 H        -3.210747        -1.508523        -2.734920
 H        -1.753166        -0.730939        -3.232036
 H        -2.493668        -1.949696        -0.518116
 H        -0.287785        -2.071770         0.145130
 H         0.410131        -1.268180        -1.111236
 H        -0.891674         2.118281         0.276416
 H         0.360505         1.347217        -0.541624
