19
Iteration:  3748charge 0 multiplicity 1
 C        -3.863104         0.841024        -1.417060
 C        -2.532916         0.225897        -1.472876
 C        -2.242591        -0.757881        -2.660566
 C        -2.194642        -1.162867        -1.007036
 C        -0.738494        -1.255700        -0.430705
 C        -0.344265        -0.165886         0.520597
 O         0.522895        -0.366020         1.401451
 C        -1.017859         1.131502         0.105868
 O        -1.372524         1.121241        -1.277932
 H        -4.573473         0.242049        -2.015576
 H        -4.359396         0.935865        -0.364601
 H        -3.812348         1.869255        -1.806529
 H        -3.038717        -1.200849        -3.314335
 H        -1.293646        -0.691018        -3.150990
 H        -3.048737        -1.654330        -0.480290
 H        -0.685540        -2.209689         0.085800
 H        -0.156636        -1.172527        -1.345377
 H        -1.774253         1.520101         0.775342
 H        -0.261380         2.025254         0.152125
