19
Iteration:  2815
 C        -3.800698         0.696559        -0.889060
 C        -2.432593         0.179085        -1.293995
 C        -2.327873        -0.826935        -2.380616
 C        -1.921079        -1.218430        -0.999355
 C        -0.447495        -1.415066        -0.564580
 C        -0.349446        -0.098317         0.292219
 O        -0.435482        -0.064231         1.480132
 C        -0.450429         1.213896        -0.460357
 O        -1.498233         1.187503        -1.450753
 H        -4.304750         0.762256        -1.848527
 H        -4.414794         0.025479        -0.244190
 H        -3.744682         1.608824        -0.284886
 H        -3.160245        -1.436458        -2.619771
 H        -1.796959        -0.695355        -3.330517
 H        -2.652067        -1.899952        -0.499841
 H        -0.333167        -2.371120         0.137425
 H         0.285982        -1.434579        -1.393019
 H        -0.600173         1.973326         0.268644
 H         0.574790         1.165738        -0.942290
