19
Iteration:   692
 C        -3.740146         0.763232        -1.352136
 C        -2.422989         0.124047        -1.571835
 C        -2.316739        -1.040862        -2.605481
 C        -2.097880        -1.328835        -1.071927
 C        -0.856269        -1.370493        -0.108453
 C        -0.330576        -0.019831         0.418553
 O         0.705112         0.094100         1.085327
 C        -1.246183         1.241427         0.160299
 O        -1.433410         1.140818        -1.272908
 H        -3.981645         1.614427        -2.072031
 H        -4.652367         0.159248        -1.163982
 H        -3.588081         1.352543        -0.457807
 H        -3.194363        -1.605653        -2.983573
 H        -1.449570        -1.176687        -3.209087
 H        -2.910322        -1.902613        -0.645646
 H        -1.216828        -1.980322         0.668822
 H        -0.200548        -2.037363        -0.527307
 H        -2.165922         1.312609         0.793771
 H        -0.653934         2.121453         0.320385
