19
Iteration:  1314charge 0 multiplicity 1
 C        -4.023930         0.774416        -1.767185
 C        -2.608208         0.252742        -1.422740
 C        -2.024945        -0.844264        -2.352297
 C        -2.261413        -1.131201        -0.852733
 C        -0.970688        -1.448343        -0.025090
 C        -0.139568        -0.226666         0.262409
 O         0.692431        -0.122206         1.154176
 C        -0.750953         1.062394        -0.086856
 O        -1.662629         1.281469        -1.148328
 H        -4.014526         1.430212        -2.640268
 H        -4.847377         0.092982        -1.973836
 H        -4.326877         1.472227        -0.930221
 H        -2.653987        -1.363675        -3.039846
 H        -1.079551        -0.631409        -2.832349
 H        -3.054227        -1.825726        -0.597738
 H        -1.265878        -1.910983         0.967090
 H        -0.339707        -2.271061        -0.474540
 H        -1.276750         1.393775         0.809904
 H        -0.068477         1.833380        -0.282383
