19
Iteration:  1264
 C        -3.873228         0.645999        -1.836686
 C        -2.483989         0.220373        -1.478987
 C        -1.823328        -0.884127        -2.306172
 C        -2.249338        -1.190202        -0.875256
 C        -1.277886        -1.257894         0.229864
 C        -0.337331        -0.064664         0.319223
 O         0.820406        -0.359015         0.488120
 C        -0.926035         1.237291         0.265769
 O        -1.640509         1.295005        -0.999990
 H        -3.854723         1.576220        -2.404763
 H        -4.354291        -0.042183        -2.545649
 H        -4.530938         0.774949        -0.953445
 H        -2.189665        -1.343061        -3.209912
 H        -0.697963        -0.773699        -2.417565
 H        -3.087341        -1.930867        -0.699268
 H        -1.699521        -1.245440         1.249907
 H        -0.606225        -2.090889         0.245935
 H        -1.695529         1.462425         1.030720
 H        -0.312573         2.186489         0.227960
