19
Iteration:   644
 C        -4.113809         0.612061        -1.497151
 C        -2.583085         0.194370        -1.532659
 C        -1.831562        -0.871419        -2.366998
 C        -2.194756        -1.133374        -0.912718
 C        -0.975955        -1.325429         0.055128
 C        -0.266337        -0.042134         0.430640
 O         0.856415        -0.156150         0.872865
 C        -1.066213         1.244791         0.043285
 O        -1.573960         1.142032        -1.301425
 H        -4.302147         1.612451        -1.788456
 H        -4.752022         0.019191        -2.116630
 H        -4.576936         0.562957        -0.504029
 H        -2.349799        -1.416614        -3.113619
 H        -0.822464        -0.449102        -2.592716
 H        -3.110074        -1.770453        -0.941465
 H        -1.405509        -1.769548         0.954781
 H        -0.351694        -2.213953        -0.358232
 H        -1.876103         1.396472         0.737368
 H        -0.388063         2.143154         0.095029
