19
Iteration:  3210charge 0 multiplicity 1
 C        -3.855536         0.684468        -1.975415
 C        -2.487936         0.218196        -1.399300
 C        -1.559921        -0.686201        -2.213577
 C        -2.186899        -1.245986        -0.940769
 C        -1.329171        -1.307412         0.278909
 C        -0.347960        -0.174480         0.348102
 O         0.849293        -0.425778         0.424454
 C        -0.760007         1.227145         0.013631
 O        -2.089052         1.347482        -0.657630
 H        -3.584022         1.524302        -2.644218
 H        -4.392733        -0.050582        -2.639295
 H        -4.491502         0.932759        -1.091819
 H        -2.008126        -1.067843        -3.177721
 H        -0.494903        -0.477552        -2.292985
 H        -2.963473        -1.979450        -1.113117
 H        -1.970228        -1.422181         1.181390
 H        -0.760599        -2.289758         0.080918
 H        -0.996346         1.896754         0.874749
 H         0.007272         1.627536        -0.620996
