19
Iteration:   961
 C        -3.737779         1.015609        -1.235424
 C        -2.560431         0.102753        -1.463603
 C        -2.441103        -1.080196        -2.265487
 C        -1.935854        -1.183693        -0.799795
 C        -0.397998        -1.069873        -0.685309
 C        -0.361937        -0.062979         0.382285
 O        -0.018953        -0.285613         1.543033
 C        -0.910919         1.188975        -0.195020
 O        -1.353383         0.976980        -1.507461
 H        -3.950526         1.722376        -2.114521
 H        -4.721794         0.445197        -1.176403
 H        -3.650415         1.550383        -0.238132
 H        -3.288235        -1.645603        -2.444295
 H        -1.726028        -1.200183        -3.084435
 H        -2.469695        -1.856733        -0.088987
 H         0.048912        -2.019262        -0.597589
 H        -0.100977        -0.536249        -1.609715
 H        -1.668757         1.579409         0.502500
 H        -0.184380         1.988847        -0.401585
