19
Iteration:  2706
 C        -3.852509         0.983424        -1.547411
 C        -2.574669         0.165245        -1.570608
 C        -2.193658        -1.027694        -2.412889
 C        -2.213090        -1.231192        -0.873495
 C        -0.755837        -1.311678        -0.268221
 C        -0.320249        -0.129285         0.498266
 O         0.721616        -0.100328         1.161837
 C        -1.170608         1.126231         0.084400
 O        -1.484023         1.123741        -1.308717
 H        -3.637241         2.032697        -1.760767
 H        -4.598577         0.464894        -2.128887
 H        -4.309384         1.047641        -0.535362
 H        -3.029454        -1.443015        -2.926005
 H        -1.292847        -1.038586        -2.935991
 H        -2.946462        -1.878343        -0.448105
 H        -0.550967        -2.342893         0.211449
 H         0.024111        -1.304207        -1.002048
 H        -1.985449         1.412155         0.888478
 H        -0.313707         1.805531         0.225922
