19
Iteration:  1393charge 0 multiplicity 1
 C        -3.685180         0.936416        -0.992308
 C        -2.502926         0.156089        -1.479053
 C        -2.396019        -0.882732        -2.537820
 C        -2.066489        -1.284864        -0.993518
 C        -0.580661        -1.356677        -0.439995
 C        -0.323832        -0.067484         0.397708
 O         0.109932        -0.072815         1.540555
 C        -0.934407         1.170321        -0.200115
 O        -1.327313         0.998551        -1.565030
 H        -3.718807         1.816222        -1.659402
 H        -4.595267         0.301489        -1.147272
 H        -3.756431         1.230186         0.116809
 H        -3.370624        -1.297676        -2.892617
 H        -1.554031        -0.791595        -3.218374
 H        -2.861900        -1.867446        -0.426779
 H        -0.525863        -2.316380         0.018917
 H         0.058481        -1.390203        -1.357833
 H        -1.841655         1.473030         0.312734
 H        -0.295545         2.004559        -0.251810
