19
Iteration:  4956
 C        -3.891026         0.792763        -2.064582
 C        -2.532812         0.248749        -1.461449
 C        -1.602558        -0.604528        -2.234336
 C        -2.195572        -1.157233        -0.944239
 C        -1.303892        -1.386781         0.307608
 C        -0.273688        -0.274004         0.304481
 O         0.912671        -0.498184         0.605919
 C        -0.817818         1.145360        -0.031647
 O        -2.084311         1.336355        -0.638782
 H        -4.720541         0.103183        -2.185185
 H        -4.082520         1.607734        -1.277112
 H        -3.579218         1.159571        -3.149487
 H        -1.884977        -1.170596        -3.179032
 H        -0.620244        -0.207693        -2.420210
 H        -3.052148        -1.790605        -1.161510
 H        -1.929513        -1.240900         1.148926
 H        -0.766958        -2.344215         0.148182
 H        -0.919752         1.681802         0.949332
 H        -0.108362         1.642597        -0.687462
