19
Iteration:  3937
 C        -3.725332         0.997775        -1.637637
 C        -2.440113         0.192641        -1.432257
 C        -2.130372        -0.756381        -2.485608
 C        -2.266515        -1.253501        -1.093640
 C        -0.973673        -1.398303        -0.201694
 C        -0.380611        -0.124914         0.436238
 O         0.729929        -0.141555         0.850093
 C        -1.288866         1.072480         0.378896
 O        -1.327448         1.016150        -1.057169
 H        -4.455949         0.514556        -2.297878
 H        -4.232951         1.211502        -0.688411
 H        -3.443794         1.940915        -2.057100
 H        -3.004237        -1.077843        -3.129417
 H        -1.194191        -0.598692        -2.974093
 H        -3.103253        -1.769378        -0.682844
 H        -1.145295        -1.906113         0.753201
 H        -0.213572        -1.859304        -0.753583
 H        -2.159037         0.895527         1.010143
 H        -0.817131         1.922971         0.717667
