19
Iteration:  1625
 C        -3.882084         1.074331        -1.492546
 C        -2.611600         0.109609        -1.514672
 C        -2.344919        -1.113546        -2.381216
 C        -2.157343        -1.200066        -0.910778
 C        -0.742194        -1.142586        -0.449922
 C        -0.332513        -0.138692         0.581465
 O         0.614657        -0.174558         1.361578
 C        -1.013551         1.184720         0.018510
 O        -1.388886         0.962295        -1.391049
 H        -3.475338         1.941307        -2.097573
 H        -4.818623         0.611216        -1.884994
 H        -4.073016         1.284042        -0.458355
 H        -3.131663        -1.671743        -2.940099
 H        -1.457899        -1.131139        -2.976940
 H        -2.823758        -1.793885        -0.253576
 H        -0.182861        -2.103765        -0.235638
 H        -0.149084        -0.558514        -1.203871
 H        -1.979431         1.565669         0.531229
 H        -0.317931         1.985703        -0.049731
