19
Iteration:  1800charge 0 multiplicity 1
 C        -3.764024         0.790563        -2.040372
 C        -2.572458         0.207457        -1.377139
 C        -1.818567        -0.832034        -2.114176
 C        -2.417300        -1.172219        -0.711815
 C        -1.213996        -1.453779         0.207595
 C        -0.250604        -0.180422         0.254133
 O         0.949368        -0.252222         0.521346
 C        -0.957712         1.203862         0.098251
 O        -1.808057         1.300672        -0.985762
 H        -3.446773         1.816992        -2.313883
 H        -3.905028         0.273467        -3.048757
 H        -4.650972         0.804123        -1.337145
 H        -2.246350        -1.236228        -3.015964
 H        -0.767199        -0.814822        -1.926775
 H        -3.251022        -1.928241        -0.597503
 H        -1.538886        -1.724604         1.269758
 H        -0.520934        -2.269824        -0.118180
 H        -1.500850         1.485693         0.979331
 H        -0.307937         2.090385        -0.104972
