19
Iteration:  3919charge 0 multiplicity 1
 C        -3.727260         0.966617        -1.676605
 C        -2.500007         0.223492        -1.494145
 C        -2.178855        -0.791356        -2.575169
 C        -2.281325        -1.204196        -1.028334
 C        -0.958955        -1.460384        -0.209065
 C        -0.282427        -0.153935         0.541400
 O         0.855059        -0.202296         0.921858
 C        -1.254436         1.135884         0.405409
 O        -1.463051         1.110501        -1.041139
 H        -4.395341         0.305636        -2.307351
 H        -4.352550         1.283331        -0.852288
 H        -3.491004         1.959689        -2.279984
 H        -2.987861        -0.925777        -3.226251
 H        -1.146223        -0.962596        -2.962639
 H        -3.200541        -1.917380        -0.829298
 H        -1.174315        -2.277829         0.503438
 H        -0.095067        -1.763275        -0.880441
 H        -2.282614         1.077336         0.767287
 H        -0.742403         2.124451         0.581183
