19
Iteration:  4912charge 0 multiplicity 1
 C        -3.809849         0.644485        -1.998038
 C        -2.468907         0.268246        -1.372341
 C        -1.739434        -0.689420        -2.292120
 C        -2.291625        -1.100052        -0.964052
 C        -1.308055        -1.404557         0.054221
 C        -0.275382        -0.196692         0.285467
 O         0.790569        -0.472807         0.750420
 C        -0.677046         1.242714        -0.049436
 O        -2.008706         1.391655        -0.648501
 H        -4.074428        -0.077737        -2.769204
 H        -4.568162         0.680429        -1.165619
 H        -3.635779         1.622681        -2.622291
 H        -2.417763        -0.997948        -3.106628
 H        -0.679048        -0.967274        -2.364222
 H        -3.204539        -1.662168        -0.755789
 H        -1.637967        -1.545055         1.066324
 H        -0.695750        -2.326133        -0.168989
 H        -0.712739         1.638124         1.006265
 H         0.139133         1.790594        -0.545043
