19
Iteration:  3795charge 0 multiplicity 1
 C        -3.919820         0.724802        -1.277243
 C        -2.474191         0.241347        -1.484301
 C        -1.976784        -0.647947        -2.578381
 C        -2.060828        -1.119626        -1.157502
 C        -0.982896        -1.527470        -0.130738
 C        -0.319510        -0.278205         0.327113
 O         0.425079        -0.310910         1.267358
 C        -0.827826         1.171355        -0.012110
 O        -1.561462         1.331059        -1.273881
 H        -4.738538         0.199815        -1.821638
 H        -4.268572         0.674263        -0.184301
 H        -4.017028         1.781723        -1.561725
 H        -2.747596        -0.922721        -3.292113
 H        -0.967875        -0.342462        -3.053191
 H        -2.806714        -1.885721        -1.042729
 H        -1.568954        -1.785678         0.727322
 H        -0.343090        -2.230315        -0.536506
 H        -1.343909         1.531584         0.925151
 H        -0.083074         1.915811        -0.139827
