19
Iteration:  3851charge 0 multiplicity 1
 C        -3.958630         0.725755        -1.482597
 C        -2.491123         0.319238        -1.478667
 C        -2.011398        -0.654609        -2.596370
 C        -2.117206        -1.174823        -1.128770
 C        -1.048001        -1.416377        -0.125954
 C        -0.366721        -0.215530         0.434129
 O         0.635112        -0.387061         1.136980
 C        -0.855037         1.176566         0.113261
 O        -1.533614         1.317793        -1.137740
 H        -4.397660        -0.295516        -1.372158
 H        -4.307926         1.326047        -0.617296
 H        -4.324146         1.220091        -2.444685
 H        -2.710993        -1.138073        -3.349335
 H        -1.034231        -0.439005        -2.977370
 H        -2.999997        -1.795725        -1.049074
 H        -1.512349        -2.005151         0.679773
 H        -0.362033        -2.144288        -0.463823
 H        -1.478784         1.419625         0.989796
 H        -0.122100         1.872536        -0.041146
