19
Iteration:  1805charge 0 multiplicity 1
 C        -3.742433         0.790999        -2.095322
 C        -2.586908         0.191807        -1.377825
 C        -1.869416        -0.860084        -2.167270
 C        -2.410141        -1.145296        -0.711562
 C        -1.217439        -1.463521         0.237830
 C        -0.232674        -0.187666         0.265915
 O         0.956992        -0.217109         0.503642
 C        -0.949249         1.199744         0.122086
 O        -1.829974         1.299848        -0.942363
 H        -3.444897         1.811094        -2.324550
 H        -3.759396         0.320140        -3.038768
 H        -4.528097         0.881621        -1.374685
 H        -2.409906        -1.462542        -2.934729
 H        -0.759850        -0.737112        -2.139991
 H        -3.178564        -1.870720        -0.626662
 H        -1.485287        -1.716959         1.269955
 H        -0.574689        -2.275237        -0.089896
 H        -1.447283         1.465952         1.138382
 H        -0.159046         1.982650         0.006928
