19
Iteration:  3888
 C        -3.869441         0.945228        -1.624134
 C        -2.509878         0.327146        -1.546613
 C        -1.999324        -0.823179        -2.415171
 C        -2.252233        -1.047821        -0.984412
 C        -0.937478        -1.515093        -0.227097
 C        -0.290227        -0.235845         0.321213
 O         0.713111        -0.283877         1.053601
 C        -1.099524         1.053687         0.225172
 O        -1.554288         1.254356        -1.093297
 H        -4.437296         0.041092        -1.856983
 H        -4.328965         1.390440        -0.760200
 H        -4.002377         1.579826        -2.524694
 H        -2.556027        -1.246473        -3.192955
 H        -0.896810        -0.765220        -2.605406
 H        -2.966340        -1.815754        -0.666702
 H        -1.093391        -2.080005         0.711217
 H        -0.203347        -1.930225        -1.000974
 H        -1.946325         1.017680         1.017868
 H        -0.418637         1.866705         0.685632
