19
Iteration:  2922
 C        -3.624624         0.840780        -0.718051
 C        -2.405417         0.128423        -1.498981
 C        -2.500056        -0.936531        -2.552629
 C        -1.863943        -1.247832        -1.102215
 C        -0.497680        -1.269104        -0.502868
 C        -0.511405        -0.017266         0.389925
 O        -0.232588        -0.091544         1.591409
 C        -0.839406         1.209533        -0.326578
 O        -1.260254         0.958021        -1.648503
 H        -3.598441         1.969084        -0.895293
 H        -4.576800         0.445510        -1.086326
 H        -3.533050         0.838468         0.393197
 H        -3.392355        -1.451247        -2.547363
 H        -1.793852        -0.662147        -3.340871
 H        -2.596853        -1.890426        -0.516553
 H        -0.287434        -2.183473         0.175025
 H         0.264077        -1.248892        -1.287341
 H        -1.548022         1.892949         0.208741
 H         0.030488         1.952877        -0.301055
