19
Iteration:  1932
 C        -3.863506         0.695470        -1.686671
 C        -2.523396         0.133803        -1.502003
 C        -1.811703        -0.890123        -2.390627
 C        -2.247699        -1.237404        -1.035690
 C        -1.377227        -1.208719         0.140923
 C        -0.296768        -0.043902         0.266008
 O         0.880139        -0.303932         0.604077
 C        -1.038310         1.260490         0.344998
 O        -1.517770         1.228753        -1.031835
 H        -3.873607         1.529244        -2.444418
 H        -4.616192        -0.171045        -1.795138
 H        -4.106546         1.059180        -0.655379
 H        -2.292922        -1.319897        -3.278306
 H        -0.699350        -0.828999        -2.528965
 H        -3.117491        -1.882050        -0.875577
 H        -1.956380        -0.976334         0.981642
 H        -0.822911        -2.092641         0.356843
 H        -1.781051         1.167662         1.138827
 H        -0.424830         2.232265         0.443913
