19
Iteration:  3086charge 0 multiplicity 1
 C        -3.807628         0.820398        -1.633985
 C        -2.394684         0.251301        -1.559571
 C        -1.853626        -0.927081        -2.413076
 C        -2.245747        -1.223911        -0.938414
 C        -1.320481        -1.351004         0.200344
 C        -0.367246        -0.178609         0.468657
 O         0.817176         0.015746         0.432111
 C        -1.212331         1.054379         0.350103
 O        -1.379628         1.141374        -1.118308
 H        -3.854241         1.855198        -2.059191
 H        -4.313108         0.001765        -2.235896
 H        -4.084607         0.894279        -0.539262
 H        -2.448341        -1.539401        -3.122753
 H        -0.810945        -0.810549        -2.620276
 H        -3.233534        -1.725148        -0.892741
 H        -1.949721        -1.455629         1.171129
 H        -0.673307        -2.223587         0.191693
 H        -2.188068         1.105097         0.845982
 H        -0.814731         2.075530         0.689888
