19
Iteration:   560
 C        -4.006005         0.690743        -2.034442
 C        -2.642686         0.076044        -1.439639
 C        -1.558538        -0.649698        -2.094837
 C        -2.154036        -1.227951        -0.831360
 C        -1.144105        -1.321629         0.373596
 C        -0.220356        -0.100037         0.257421
 O         0.940217        -0.315089         0.516357
 C        -0.848327         1.251445        -0.160709
 O        -2.179025         1.226967        -0.750488
 H        -3.791895         1.045900        -3.106891
 H        -4.782712        -0.098128        -2.008963
 H        -4.162629         1.551295        -1.375692
 H        -1.767179        -1.117255        -2.985265
 H        -0.518136        -0.358939        -2.003338
 H        -2.773003        -2.148305        -0.857242
 H        -1.722782        -1.423360         1.345625
 H        -0.628041        -2.201837         0.155371
 H        -0.874983         1.874555         0.761846
 H        -0.092824         1.688045        -0.858239
