19
Iteration:  3839charge 0 multiplicity 1
 C        -4.057887         0.688524        -1.424184
 C        -2.492322         0.265785        -1.564218
 C        -1.947807        -0.633673        -2.625331
 C        -2.110946        -1.080492        -1.217210
 C        -1.091702        -1.443203        -0.149456
 C        -0.329705        -0.212395         0.464543
 O         0.612052        -0.349367         1.177658
 C        -0.795842         1.217877         0.107188
 O        -1.533128         1.200902        -1.089564
 H        -4.826807        -0.138523        -1.395971
 H        -4.101757         1.272634        -0.432942
 H        -4.444598         1.339551        -2.242039
 H        -2.732109        -1.211982        -3.169528
 H        -1.044349        -0.383037        -3.221295
 H        -2.954844        -1.711483        -1.083973
 H        -1.635946        -1.729978         0.750839
 H        -0.323484        -2.107624        -0.391615
 H        -1.258816         1.809958         0.864224
 H         0.169805         1.635235        -0.021085
