19
Iteration:  2320
 C        -3.856632         0.799147        -1.321972
 C        -2.517291         0.115018        -1.556285
 C        -2.376054        -1.052540        -2.487865
 C        -2.145203        -1.180001        -0.986553
 C        -0.717514        -1.250349        -0.405877
 C        -0.200900        -0.046290         0.464852
 O         0.361382        -0.136708         1.529374
 C        -0.802996         1.311044        -0.101444
 O        -1.478180         1.066168        -1.401942
 H        -3.790178         1.882950        -1.534351
 H        -4.644256         0.497627        -2.095303
 H        -4.210111         0.608069        -0.263406
 H        -3.297816        -1.527455        -2.794683
 H        -1.495341        -1.182016        -3.157382
 H        -2.899423        -1.675583        -0.424497
 H        -0.598555        -2.234306         0.116887
 H         0.002811        -1.384417        -1.257374
 H        -1.448913         1.745098         0.748177
 H        -0.162232         2.075663        -0.467022
