19
Iteration:  3648charge 0 multiplicity 1
 C        -3.849299         0.632458        -1.070594
 C        -2.441905         0.225354        -1.449630
 C        -2.301981        -0.639238        -2.642230
 C        -2.038759        -1.133696        -1.123993
 C        -0.712542        -1.278258        -0.506117
 C        -0.390015        -0.135326         0.511967
 O         0.102392        -0.369195         1.583306
 C        -0.738309         1.202930        -0.165420
 O        -1.364155         1.137056        -1.407548
 H        -4.576518        -0.194503        -0.901519
 H        -3.881646         1.284457        -0.195445
 H        -4.309718         1.141986        -1.981298
 H        -3.174732        -1.056520        -2.987217
 H        -1.561001        -0.489500        -3.410134
 H        -2.889612        -1.708530        -0.893441
 H        -0.612889        -2.201467         0.068387
 H         0.083138        -1.192328        -1.279271
 H        -1.323304         1.896506         0.570859
 H         0.290050         1.767265        -0.280792
