19
Iteration:  2602
 C        -3.964541         0.629175        -1.616344
 C        -2.508844         0.180462        -1.409052
 C        -1.632637        -0.744412        -2.383154
 C        -2.188317        -1.237750        -1.071799
 C        -1.380091        -1.230830         0.199884
 C        -0.376852        -0.108445         0.386237
 O         0.826273        -0.307422         0.507996
 C        -0.974679         1.242294         0.217541
 O        -1.603301         1.238833        -1.034747
 H        -4.057372         0.897330        -2.667962
 H        -4.648179        -0.283931        -1.587382
 H        -4.310902         1.332652        -0.855871
 H        -1.782797        -1.215789        -3.468768
 H        -0.575257        -0.208438        -2.376436
 H        -3.007778        -2.052294        -0.992094
 H        -1.981320        -1.239638         1.093933
 H        -0.723708        -2.207428         0.365643
 H        -1.738617         1.317214         1.032660
 H        -0.233257         2.024298         0.150216
