19
Iteration:  4931
 C        -3.808632         0.688692        -2.034939
 C        -2.467962         0.291442        -1.423574
 C        -1.768159        -0.708454        -2.281939
 C        -2.433646        -1.146626        -0.946200
 C        -1.307059        -1.394078         0.106862
 C        -0.271100        -0.237704         0.285831
 O         0.847087        -0.344479         0.666947
 C        -0.674043         1.140591         0.066373
 O        -1.965901         1.352255        -0.599970
 H        -4.161936        -0.294256        -2.386008
 H        -4.443442         1.086708        -1.326585
 H        -3.584961         1.253175        -3.100827
 H        -1.927501        -0.693136        -3.376344
 H        -0.543766        -0.725595        -2.185437
 H        -3.250063        -1.893445        -1.113770
 H        -1.795885        -1.319140         1.092224
 H        -0.779232        -2.311994        -0.209958
 H        -0.732354         1.666329         1.051562
 H         0.065688         1.534626        -0.610832
