19
Iteration:  4524
 C        -3.964593         0.676663        -1.930261
 C        -2.512930         0.279654        -1.532279
 C        -1.765900        -0.688462        -2.452387
 C        -2.185548        -1.030559        -1.072543
 C        -1.299420        -1.282310         0.162848
 C        -0.220312        -0.260482         0.412697
 O         0.909964        -0.516585         0.806998
 C        -0.716019         1.198476         0.079894
 O        -1.969084         1.314400        -0.750979
 H        -4.384401        -0.236466        -2.282107
 H        -4.442604         0.920556        -0.925042
 H        -3.964086         1.473493        -2.629250
 H        -2.478524        -0.987909        -3.249387
 H        -0.759277        -0.575253        -2.690603
 H        -3.081641        -1.724313        -1.018123
 H        -2.007345        -1.256361         1.036987
 H        -0.904624        -2.371602         0.389851
 H        -0.915125         1.543299         1.059433
 H         0.051606         1.762966        -0.439195
