19
Iteration:  4271
 C        -3.872946         0.721989        -1.734711
 C        -2.472689         0.267068        -1.466960
 C        -1.739055        -0.780946        -2.365756
 C        -2.287140        -1.103134        -1.033539
 C        -1.181097        -1.425326         0.000545
 C        -0.287939        -0.191214         0.223782
 O         0.646492        -0.380091         0.956779
 C        -0.659705         1.203470        -0.008204
 O        -1.907841         1.337749        -0.843237
 H        -4.473915        -0.041521        -2.344222
 H        -4.194819         0.891502        -0.639399
 H        -3.854115         1.643983        -2.273804
 H        -2.242676        -1.206276        -3.323952
 H        -0.666362        -0.796473        -2.498279
 H        -3.153914        -1.681548        -0.990131
 H        -1.671267        -1.719704         0.907454
 H        -0.537077        -2.221265        -0.510071
 H        -0.925971         1.525134         0.986763
 H         0.088136         2.013327        -0.345577
