19
Iteration:  4447charge 0 multiplicity 1
 C        -3.826059         0.657206        -2.125675
 C        -2.431320         0.285450        -1.415932
 C        -1.549667        -0.613201        -2.272539
 C        -2.273147        -1.155192        -0.960864
 C        -1.438554        -1.251166         0.290159
 C        -0.281732        -0.230835         0.327104
 O         0.896592        -0.549139         0.516993
 C        -0.775855         1.259813        -0.099248
 O        -2.089111         1.285131        -0.431672
 H        -4.098714        -0.178044        -2.766615
 H        -4.664668         0.801221        -1.351469
 H        -3.577682         1.517919        -2.638062
 H        -2.096190        -0.894280        -3.169213
 H        -0.429715        -0.557518        -2.291117
 H        -3.104544        -1.904680        -1.033107
 H        -2.214240        -1.042284         1.037358
 H        -0.915521        -2.316269         0.358905
 H        -0.580996         1.893305         0.722926
 H        -0.139480         1.506183        -0.976323
