19
Iteration:  1775charge 0 multiplicity 1
 C        -3.959189         0.654276        -1.841352
 C        -2.530753         0.240179        -1.478454
 C        -1.689561        -0.881330        -2.200529
 C        -2.292407        -1.101345        -0.817180
 C        -1.268670        -1.327633         0.249947
 C        -0.320730        -0.187081         0.245213
 O         0.839700        -0.384781         0.598752
 C        -0.887277         1.196595         0.111207
 O        -1.697158         1.444481        -1.083222
 H        -3.922385         1.656491        -2.307281
 H        -4.435572        -0.101414        -2.556093
 H        -4.588839         0.619646        -0.837137
 H        -2.072399        -1.531551        -2.996491
 H        -0.614112        -0.600688        -2.186083
 H        -3.140732        -1.803320        -0.789984
 H        -1.657707        -1.398902         1.249389
 H        -0.598010        -2.229004         0.066835
 H        -1.541150         1.388577         0.947400
 H        -0.133601         1.958265         0.081203
