19
Iteration:  3640
 C        -3.805213         0.616379        -1.066552
 C        -2.467918         0.272593        -1.453856
 C        -2.291661        -0.635637        -2.622642
 C        -2.093118        -1.159250        -1.235946
 C        -0.664961        -1.301741        -0.442138
 C        -0.359392        -0.160680         0.456101
 O         0.057037        -0.294187         1.612766
 C        -0.672195         1.159055        -0.144955
 O        -1.437737         1.163213        -1.379890
 H        -4.486260        -0.224761        -0.954930
 H        -3.867306         1.202470        -0.063781
 H        -4.166798         1.336467        -1.782254
 H        -3.206800        -1.087872        -3.055868
 H        -1.523490        -0.418764        -3.365852
 H        -2.797584        -1.927902        -0.926915
 H        -0.589078        -2.274587         0.009323
 H         0.025742        -1.462551        -1.241838
 H        -1.150892         1.911750         0.546184
 H         0.283887         1.582351        -0.598282
