19
Iteration:  3377
 C        -4.001731         0.619598        -1.481409
 C        -2.503762         0.359569        -1.499051
 C        -2.241995        -0.843327        -2.585626
 C        -2.143434        -1.149949        -1.103831
 C        -0.911989        -1.370138        -0.252059
 C        -0.259272        -0.189644         0.479986
 O         0.551340        -0.280847         1.374407
 C        -0.638359         1.168341        -0.067222
 O        -1.607145         1.354186        -1.143358
 H        -4.344442         1.675999        -1.499493
 H        -4.463374         0.252898        -2.397758
 H        -4.461192         0.017661        -0.661223
 H        -3.142092        -1.062665        -3.174437
 H        -1.372636        -0.979687        -3.168494
 H        -2.962113        -1.702941        -0.560750
 H        -1.087352        -2.255714         0.438569
 H         0.039707        -1.638224        -0.879160
 H        -0.884785         1.652856         0.926120
 H         0.166476         1.772022        -0.437837
