19
Iteration:  1168
 C        -3.613477         0.774975        -2.208480
 C        -2.462473         0.152306        -1.443667
 C        -1.710616        -0.975527        -2.091874
 C        -2.337925        -1.199922        -0.740468
 C        -1.305917        -1.302738         0.414692
 C        -0.390557        -0.152387         0.276685
 O         0.774149        -0.063964        -0.052063
 C        -0.989964         1.131488         0.488008
 O        -1.755911         1.250888        -0.736250
 H        -3.172698         1.162293        -3.135746
 H        -4.165387        -0.093959        -2.583136
 H        -4.125303         1.449944        -1.605465
 H        -2.335058        -1.376528        -2.910292
 H        -0.641530        -1.226298        -2.379396
 H        -3.170393        -1.925507        -0.691946
 H        -2.040828        -1.083502         1.323776
 H        -0.859285        -2.309219         0.644032
 H        -1.650321         1.327535         1.302878
 H        -0.210919         1.985586         0.453287
