19
Iteration:  2437
 C        -3.942596         0.764548        -1.569159
 C        -2.508292         0.238680        -1.391366
 C        -1.767394        -0.773400        -2.319692
 C        -2.084506        -1.222126        -0.932076
 C        -1.160335        -1.524359         0.164069
 C        -0.427053        -0.166020         0.416335
 O         0.746307        -0.151770         0.663195
 C        -1.089486         1.175257         0.063300
 O        -1.540318         1.269243        -1.259094
 H        -4.133802         1.162705        -2.529623
 H        -4.726836         0.060311        -1.386582
 H        -3.946400         1.568453        -0.845325
 H        -2.193562        -1.269304        -3.144600
 H        -0.814987        -0.297300        -2.610581
 H        -2.902609        -1.909622        -0.940881
 H        -1.768820        -1.807940         1.014828
 H        -0.571643        -2.457457        -0.052867
 H        -1.954492         1.268059         0.777986
 H        -0.328172         1.927653         0.221082
