19
Iteration:  1641charge 0 multiplicity 1
 C        -3.851064         0.930154        -1.584817
 C        -2.535575         0.188723        -1.499801
 C        -2.353418        -1.038992        -2.380617
 C        -2.216538        -1.190721        -0.869886
 C        -0.758421        -1.282526        -0.375456
 C        -0.267904        -0.056299         0.518545
 O         0.674342        -0.215604         1.287482
 C        -1.070924         1.237510         0.061490
 O        -1.395218         1.040273        -1.327076
 H        -3.831341         1.880340        -2.190307
 H        -4.541341         0.336515        -2.215378
 H        -4.335449         1.310028        -0.603294
 H        -3.336917        -1.274372        -2.812560
 H        -1.485831        -1.224636        -3.056348
 H        -2.990228        -1.804948        -0.418692
 H        -0.543864        -2.224045         0.132420
 H        -0.101933        -1.275131        -1.248110
 H        -1.965164         1.439724         0.632297
 H        -0.486189         2.211414         0.149266
