19
Iteration:  1326charge 0 multiplicity 1
 C        -4.048113         0.752138        -1.662440
 C        -2.599604         0.254334        -1.404958
 C        -2.102224        -0.848093        -2.319547
 C        -2.201070        -1.142134        -0.883739
 C        -0.944444        -1.470703        -0.144669
 C        -0.165244        -0.167520         0.336489
 O         0.627982        -0.218853         1.268525
 C        -0.748199         1.210870        -0.157944
 O        -1.599105         1.276228        -1.281759
 H        -3.954060         1.179092        -2.663056
 H        -4.596535        -0.200936        -1.649327
 H        -4.521786         1.472100        -0.890588
 H        -2.794536        -1.260884        -2.988911
 H        -1.060169        -0.638411        -2.588098
 H        -3.110194        -1.761230        -0.724413
 H        -1.071011        -1.780699         0.903914
 H        -0.337004        -2.184166        -0.731578
 H        -1.237839         1.452943         0.796128
 H         0.118326         1.774032        -0.246925
