19
Iteration:  2077
 C        -3.873199         0.859954        -1.106183
 C        -2.556393         0.215220        -1.631750
 C        -2.194844        -0.985428        -2.484530
 C        -2.097488        -1.150698        -0.994232
 C        -0.734988        -1.332676        -0.299931
 C        -0.286113        -0.148517         0.404401
 O         0.269163        -0.103842         1.459898
 C        -0.812916         1.129288        -0.185931
 O        -1.443467         1.143991        -1.498436
 H        -4.347538         1.451245        -1.973043
 H        -4.526088         0.075373        -0.666786
 H        -3.627839         1.674705        -0.334639
 H        -3.041390        -1.496803        -2.971371
 H        -1.259428        -0.831265        -2.995848
 H        -2.884408        -1.794346        -0.550736
 H        -0.944149        -2.157367         0.345403
 H        -0.049343        -1.800307        -0.977218
 H        -1.565548         1.288483         0.669341
 H        -0.108159         1.936381        -0.195265
