19
Iteration:   369charge 0 multiplicity 1
 C        -3.971408         0.684086        -1.694934
 C        -2.619642         0.137756        -1.442970
 C        -1.880891        -0.864686        -2.288969
 C        -2.210911        -1.217158        -0.850052
 C        -1.017224        -1.472990         0.190877
 C        -0.260913        -0.106093         0.343912
 O         0.864258         0.061819         0.757160
 C        -1.041537         1.163939         0.034211
 O        -1.662201         1.189707        -1.225832
 H        -4.056331         1.752792        -1.415215
 H        -4.187141         0.540026        -2.746993
 H        -4.786769         0.203684        -1.091067
 H        -2.449271        -1.226241        -3.133781
 H        -0.844202        -0.600072        -2.506136
 H        -3.012983        -1.842076        -0.604147
 H        -1.270922        -1.745482         1.197375
 H        -0.399859        -2.327442        -0.325520
 H        -1.740160         1.378968         0.826585
 H        -0.258822         1.982156        -0.056845
