19
Iteration:   925
 C        -3.674296         0.741366        -0.960784
 C        -2.373798         0.153821        -1.445872
 C        -2.571386        -1.078615        -2.282882
 C        -1.861067        -1.236548        -0.908639
 C        -0.390310        -1.245427        -0.654292
 C        -0.332482        -0.019526         0.304961
 O        -0.415323        -0.266181         1.507831
 C        -0.703759         1.361144        -0.315192
 O        -1.338995         1.196371        -1.565492
 H        -4.063983         1.325001        -1.755665
 H        -4.340061        -0.007669        -0.569421
 H        -3.432939         1.462990        -0.153962
 H        -3.589734        -1.543558        -2.235191
 H        -2.022649        -1.203258        -3.189549
 H        -2.348553        -1.842120        -0.164978
 H         0.124925        -2.099234        -0.203203
 H         0.141361        -0.970189        -1.495344
 H        -1.449142         1.874853         0.355234
 H         0.101984         2.033334        -0.357053
