19
Iteration:   615
 C        -3.893795         0.389920        -1.718018
 C        -2.443593         0.205922        -1.506681
 C        -2.014881        -0.926289        -2.374783
 C        -2.270025        -1.154609        -0.883670
 C        -1.056507        -1.321758         0.133266
 C        -0.240611        -0.044267         0.270494
 O         0.859715        -0.195563         0.776066
 C        -0.871323         1.291977         0.154382
 O        -1.783145         1.417820        -1.086396
 H        -4.085709         1.380763        -2.280416
 H        -4.297826        -0.348651        -2.459059
 H        -4.515052         0.260909        -0.844853
 H        -2.691668        -1.336508        -3.066638
 H        -1.003018        -0.938917        -2.710897
 H        -3.234921        -1.613742        -0.651788
 H        -1.557020        -1.471271         1.093825
 H        -0.565997        -2.188511        -0.053114
 H        -1.501465         1.378707         1.088477
 H        -0.085604         2.075354         0.102106
