19
Iteration:  1180
 C        -3.607711         0.733923        -2.170685
 C        -2.365922         0.137919        -1.342826
 C        -1.692878        -0.988209        -2.168528
 C        -2.335359        -1.327964        -0.802900
 C        -1.410875        -1.296821         0.467717
 C        -0.359435        -0.087354         0.380615
 O         0.749013        -0.153159        -0.140828
 C        -1.050238         1.273664         0.508691
 O        -1.725730         1.271116        -0.788278
 H        -3.218611         1.350019        -3.025287
 H        -4.423222         0.046581        -2.476040
 H        -4.150211         1.478214        -1.628881
 H        -2.181936        -1.181942        -3.117416
 H        -0.547969        -0.911076        -2.113037
 H        -3.222666        -1.937596        -0.721899
 H        -1.920625        -1.266329         1.484676
 H        -0.749027        -2.210663         0.333683
 H        -1.680213         1.367598         1.386246
 H        -0.220424         2.068142         0.419411
