19
Iteration:  3187charge 0 multiplicity 1
 C        -3.782834         0.598930        -2.071660
 C        -2.499469         0.224874        -1.339132
 C        -1.662179        -0.741362        -2.207277
 C        -2.307924        -1.185966        -0.877334
 C        -1.271594        -1.323449         0.252290
 C        -0.276770        -0.154480         0.195119
 O         0.874384        -0.457498         0.364575
 C        -0.872228         1.299378         0.222027
 O        -1.978353         1.398155        -0.719447
 H        -3.692975         1.635163        -2.401745
 H        -3.977060        -0.041199        -3.009547
 H        -4.557150         0.367210        -1.333933
 H        -1.982177        -1.073961        -3.204376
 H        -0.579682        -0.753504        -2.063527
 H        -3.183244        -1.744098        -0.844541
 H        -1.805965        -1.186049         1.232521
 H        -0.788977        -2.347295         0.151129
 H        -1.354685         1.438725         1.225026
 H        -0.153555         2.071983        -0.006534
