19
Iteration:  4247charge 0 multiplicity 1
 C        -4.019348         0.688189        -1.834344
 C        -2.548978         0.316914        -1.452562
 C        -1.829371        -0.681048        -2.393765
 C        -2.289170        -1.134226        -1.020485
 C        -1.082391        -1.439131        -0.038449
 C        -0.236105        -0.293523         0.428613
 O         0.773539        -0.383982         1.074797
 C        -0.694482         1.107223        -0.053471
 O        -1.868037         1.443870        -0.924620
 H        -4.418696         0.027735        -2.616256
 H        -4.511424         0.575656        -0.910923
 H        -4.170878         1.731406        -2.198679
 H        -2.323923        -0.979703        -3.331635
 H        -0.744435        -0.609144        -2.585078
 H        -3.224922        -1.661227        -0.780457
 H        -1.590396        -1.823558         0.860064
 H        -0.457129        -2.238358        -0.444107
 H        -0.633088         1.804334         0.784350
 H         0.168994         1.476696        -0.632873
