19
Iteration:  3458charge 0 multiplicity 1
 C        -3.696335         0.865955        -0.987131
 C        -2.403470         0.208110        -1.556898
 C        -2.496979        -0.884060        -2.656191
 C        -2.065728        -1.246024        -1.181537
 C        -0.562581        -1.298962        -0.508742
 C        -0.480982        -0.135185         0.546586
 O         0.226808        -0.123053         1.549888
 C        -1.049735         1.077994        -0.023614
 O        -1.239262         1.102766        -1.481482
 H        -3.531947         1.932225        -0.844383
 H        -4.460672         0.549335        -1.696501
 H        -3.961157         0.519844        -0.011766
 H        -3.570744        -1.211725        -2.711910
 H        -2.013922        -0.977031        -3.742864
 H        -2.884305        -1.737248        -0.647884
 H        -0.199537        -2.232150        -0.101437
 H         0.153428        -0.942088        -1.245024
 H        -1.884541         1.563583         0.459650
 H        -0.187931         1.832536         0.020991
