19
Iteration:  1575charge 0 multiplicity 1
 C        -3.827909         0.728847        -1.060115
 C        -2.408224         0.206822        -1.468533
 C        -2.443929        -0.901668        -2.427890
 C        -2.079113        -1.195869        -0.956725
 C        -0.598252        -1.402213        -0.380435
 C        -0.334156        -0.111904         0.321381
 O         0.044385        -0.127296         1.478331
 C        -0.760819         1.257549        -0.226227
 O        -1.294631         1.172847        -1.577427
 H        -4.249052         1.122903        -1.988373
 H        -4.384229        -0.191865        -0.844068
 H        -3.811436         1.385354        -0.158010
 H        -3.348259        -1.346747        -2.786069
 H        -1.794576        -0.787851        -3.298405
 H        -2.930861        -1.720199        -0.433612
 H        -0.614474        -2.077937         0.498154
 H         0.150332        -1.699118        -1.113270
 H        -1.545044         1.661278         0.526068
 H         0.145382         1.981033        -0.278295
