19
Iteration:  3183charge 0 multiplicity 1
 C        -3.813042         0.582287        -2.095011
 C        -2.460827         0.255756        -1.331898
 C        -1.661392        -0.751768        -2.199272
 C        -2.299754        -1.181884        -0.835049
 C        -1.293630        -1.303959         0.238438
 C        -0.259713        -0.181425         0.190134
 O         0.897200        -0.425008         0.354075
 C        -0.867763         1.245588         0.248572
 O        -1.978962         1.387569        -0.738676
 H        -3.810994         1.636801        -2.385039
 H        -3.943264         0.036024        -3.033714
 H        -4.651410         0.414852        -1.403675
 H        -2.017185        -1.044875        -3.157322
 H        -0.569910        -0.809981        -2.091247
 H        -3.324840        -1.660655        -0.909707
 H        -1.845987        -1.237192         1.203117
 H        -0.900836        -2.264081         0.146412
 H        -1.412830         1.446680         1.150726
 H        -0.151854         2.137217         0.197767
