19
Iteration:  4114
 C        -4.009555         0.686195        -1.771597
 C        -2.596655         0.305181        -1.500264
 C        -1.901873        -0.636561        -2.468006
 C        -2.178588        -1.073067        -1.130968
 C        -1.068487        -1.362793         0.013056
 C        -0.264193        -0.240032         0.476241
 O         0.703006        -0.371404         1.190330
 C        -0.530354         1.061735        -0.260338
 O        -1.908390         1.322322        -0.773561
 H        -4.578100        -0.000449        -2.385869
 H        -4.586360         0.742139        -0.903113
 H        -4.108069         1.707003        -2.254993
 H        -2.574098        -0.864002        -3.343688
 H        -0.879135        -0.465199        -2.688322
 H        -3.069498        -1.878722        -1.058681
 H        -1.558569        -2.060899         0.700615
 H        -0.340799        -2.019069        -0.446775
 H        -0.502020         1.827360         0.574480
 H         0.261783         0.945050        -0.975259
