19
Iteration:  2110charge 0 multiplicity 1
 C        -3.660206         0.696162        -1.035976
 C        -2.370975         0.135609        -1.470063
 C        -2.470567        -0.897775        -2.451303
 C        -2.067573        -1.266350        -1.013920
 C        -0.696801        -1.230575        -0.467377
 C        -0.513178        -0.063686         0.435572
 O         0.108492        -0.130830         1.525567
 C        -0.765066         1.287928        -0.248416
 O        -1.337329         1.065521        -1.546834
 H        -3.914613         1.454858        -1.894184
 H        -4.452092        -0.082510        -1.087324
 H        -3.588717         1.177091         0.011125
 H        -3.466615        -1.103695        -2.811855
 H        -1.701730        -0.886926        -3.236363
 H        -2.759033        -1.881000        -0.377444
 H        -0.569324        -2.138602         0.084039
 H         0.144462        -1.231172        -1.154929
 H        -1.486472         2.014585         0.296633
 H         0.167942         1.813642        -0.310185
