19
Iteration:  1041
 C        -3.973698         0.641591        -1.305546
 C        -2.555014         0.204350        -1.542942
 C        -1.927194        -0.786511        -2.505360
 C        -2.158486        -1.215435        -1.036978
 C        -1.072499        -1.373027         0.045885
 C        -0.304215        -0.102779         0.400116
 O         0.653514        -0.219810         1.182121
 C        -0.855422         1.239849        -0.097814
 O        -1.553565         1.213382        -1.423070
 H        -4.316048         1.614932        -1.818912
 H        -4.698873        -0.224218        -1.371938
 H        -4.085118         0.985460        -0.243297
 H        -2.562596        -1.240155        -3.324921
 H        -0.967946        -0.337255        -2.845588
 H        -2.950019        -1.949768        -1.100659
 H        -1.617475        -1.513953         1.060213
 H        -0.369592        -2.250727        -0.153450
 H        -1.519584         1.666413         0.680853
 H        -0.157310         2.085722        -0.364283
