19
Iteration:   153charge 0 multiplicity 1
 C        -3.592287         0.578273        -0.618949
 C        -2.437653         0.062181        -1.410272
 C        -2.511518        -0.993794        -2.495623
 C        -1.984653        -1.390319        -1.055814
 C        -0.583342        -1.270552        -0.443879
 C        -0.411881         0.102926         0.373430
 O        -0.211948         0.362351         1.535111
 C        -0.741272         1.312191        -0.519941
 O        -1.266822         0.825147        -1.685485
 H        -4.573186         0.527970        -1.142986
 H        -3.685712         0.009637         0.316332
 H        -3.502337         1.674947        -0.376672
 H        -3.461882        -1.479211        -2.613005
 H        -1.849021        -0.945546        -3.359784
 H        -2.654166        -1.964216        -0.522891
 H        -0.427833        -2.026982         0.283121
 H         0.180635        -1.344896        -1.225294
 H        -1.288253         2.028678         0.101998
 H         0.245359         1.746030        -0.850402
