19
Iteration:  3501charge 0 multiplicity 1
 C        -3.831010         0.828562        -0.954351
 C        -2.486241         0.212564        -1.463248
 C        -2.247618        -0.857531        -2.491500
 C        -1.989634        -1.194081        -0.967094
 C        -0.546107        -1.269157        -0.560223
 C        -0.376355        -0.122098         0.318128
 O        -0.104654        -0.363728         1.504200
 C        -0.736462         1.313208        -0.192415
 O        -1.422134         1.120548        -1.481935
 H        -4.055685         1.766859        -1.464425
 H        -4.727495         0.185661        -1.110573
 H        -3.814743         1.079210         0.090293
 H        -3.046229        -1.321811        -3.122531
 H        -1.303338        -0.751249        -3.167910
 H        -2.690471        -1.903907        -0.516993
 H        -0.329565        -2.198362        -0.009718
 H         0.112866        -1.371435        -1.463147
 H        -1.275143         1.774895         0.604186
 H         0.289587         1.718975        -0.304980
