19
Iteration:  3656charge 0 multiplicity 1
 C        -3.916438         0.701407        -1.096409
 C        -2.461584         0.208317        -1.468481
 C        -2.314603        -0.697763        -2.629366
 C        -2.017175        -1.134062        -1.095066
 C        -0.697146        -1.272954        -0.533368
 C        -0.448987        -0.155974         0.485451
 O         0.146863        -0.414473         1.568312
 C        -0.774258         1.292524        -0.101865
 O        -1.294262         1.128272        -1.439840
 H        -4.383756        -0.254689        -0.782961
 H        -3.915784         1.387029        -0.314341
 H        -4.447570         1.162004        -1.976085
 H        -3.247863        -1.043441        -3.066813
 H        -1.413458        -0.531350        -3.241186
 H        -2.794420        -1.721987        -0.544321
 H        -0.541817        -2.222970         0.033234
 H         0.173606        -1.045835        -1.227224
 H        -1.450019         1.735552         0.588990
 H         0.124890         1.839594        -0.090921
