19
Iteration:  1818
 C        -3.762302         0.814656        -2.175520
 C        -2.551189         0.194565        -1.432590
 C        -1.938184        -0.991797        -2.211722
 C        -2.305628        -1.148925        -0.750068
 C        -1.181887        -1.347447         0.273144
 C        -0.256765        -0.200842         0.336193
 O         0.967410        -0.179892         0.458591
 C        -0.875682         1.112566         0.236701
 O        -1.860040         1.341809        -0.841120
 H        -3.405443         1.804622        -2.469396
 H        -4.137223         0.265523        -3.056495
 H        -4.808201         0.904345        -1.730013
 H        -2.648916        -1.430796        -2.929583
 H        -0.960447        -0.927722        -2.742954
 H        -3.256780        -1.684426        -0.609544
 H        -1.566614        -1.435989         1.244586
 H        -0.756362        -2.344387        -0.038823
 H        -1.416810         1.280241         1.234251
 H        -0.106359         1.821273         0.064762
