19
Iteration:   409
 C        -3.949021         0.476648        -2.053627
 C        -2.502181         0.156837        -1.438071
 C        -1.932431        -0.956949        -2.280004
 C        -2.256061        -1.080874        -0.675081
 C        -1.002731        -1.216491         0.100247
 C        -0.128908        -0.065479         0.193724
 O         0.970598        -0.259754         0.693961
 C        -0.969390         1.267392         0.113769
 O        -1.982875         1.345503        -0.864832
 H        -3.928783         1.583997        -2.229013
 H        -4.126440         0.062277        -3.050053
 H        -4.709311         0.118975        -1.419819
 H        -2.581359        -1.370530        -3.047792
 H        -0.915462        -0.941961        -2.477295
 H        -3.068773        -1.832135        -0.554659
 H        -1.313778        -1.390016         1.168823
 H        -0.476217        -2.067305        -0.154962
 H        -1.368167         1.478232         1.156269
 H        -0.235651         2.052962        -0.028717
