19
Iteration:  4686
 C        -3.998084         0.752209        -1.569648
 C        -2.530223         0.285248        -1.449232
 C        -1.751559        -0.500136        -2.458960
 C        -2.133723        -1.161827        -1.133571
 C        -1.168092        -1.521678         0.013425
 C        -0.368316        -0.285488         0.441725
 O         0.596354        -0.302785         1.196148
 C        -0.536228         1.017681        -0.395473
 O        -1.875834         1.354292        -0.863324
 H        -4.508842        -0.082234        -2.055640
 H        -4.619047         0.732398        -0.560883
 H        -4.171199         1.676934        -2.032950
 H        -2.196660        -0.796650        -3.405806
 H        -0.722484        -0.086771        -2.551703
 H        -3.086800        -1.791453        -1.283698
 H        -1.704593        -1.959223         0.833250
 H        -0.514755        -2.171166        -0.451315
 H        -0.194569         1.898573         0.171616
 H         0.203816         0.758947        -1.186158
