19
Iteration:  1823
 C        -3.819263         0.816595        -2.195769
 C        -2.532373         0.220069        -1.468993
 C        -1.954682        -1.049681        -2.241354
 C        -2.272642        -1.150969        -0.790553
 C        -1.181218        -1.304545         0.267357
 C        -0.229966        -0.205589         0.349943
 O         0.969025        -0.193635         0.443205
 C        -0.885688         1.077844         0.281186
 O        -1.855732         1.352356        -0.798428
 H        -3.453895         1.781876        -2.635308
 H        -4.006392         0.214479        -3.140504
 H        -4.728599         1.009607        -1.562172
 H        -2.814280        -1.244529        -2.889189
 H        -0.955320        -1.097003        -2.632715
 H        -3.167195        -1.729684        -0.462893
 H        -1.737919        -1.326318         1.292428
 H        -0.643578        -2.261143         0.179467
 H        -1.399713         1.343161         1.176238
 H        -0.200285         1.959187         0.093612
