19
Iteration:  3320
 C        -4.005776         0.697401        -1.620592
 C        -2.561282         0.278286        -1.471728
 C        -1.799346        -0.561062        -2.380681
 C        -2.161416        -1.239504        -1.038095
 C        -1.089272        -1.623901        -0.013153
 C        -0.312190        -0.295259         0.347830
 O         0.651565        -0.188101         1.075538
 C        -0.678800         1.111116        -0.236666
 O        -1.866641         1.414640        -0.919299
 H        -4.058331         1.640626        -2.272456
 H        -4.768299        -0.036379        -1.890477
 H        -4.197040         1.229626        -0.623850
 H        -2.291040        -1.011485        -3.238900
 H        -0.726847        -0.267248        -2.554111
 H        -2.829768        -2.143158        -1.120886
 H        -1.498801        -2.156022         0.899846
 H        -0.318965        -2.379815        -0.481857
 H        -0.584248         1.659368         0.748370
 H         0.187964         1.474301        -0.838119
