19
Iteration:  2989
 C        -4.067406         0.714891        -1.510624
 C        -2.528727         0.224116        -1.418146
 C        -2.236996        -0.884480        -2.420303
 C        -2.087558        -1.140479        -0.889167
 C        -0.732112        -1.413612        -0.330290
 C        -0.242995        -0.138579         0.454068
 O         0.418910        -0.260640         1.451715
 C        -0.759092         1.265463        -0.166177
 O        -1.515268         1.281191        -1.401272
 H        -4.217287         1.109902        -2.537711
 H        -4.606888        -0.245136        -1.280165
 H        -4.297713         1.636834        -0.952316
 H        -3.122165        -1.410669        -2.845720
 H        -1.375639        -0.884796        -3.074964
 H        -2.941134        -1.592645        -0.339500
 H        -0.729047        -2.319029         0.371053
 H        -0.000668        -1.680069        -1.131384
 H        -1.358160         1.692829         0.699839
 H         0.236578         1.871212        -0.180459
