19
Iteration:  2766charge 0 multiplicity 1
 C        -3.838832         0.730079        -1.007268
 C        -2.511818         0.168405        -1.504898
 C        -2.322947        -0.941859        -2.524536
 C        -2.041873        -1.144644        -1.047427
 C        -0.703854        -1.280130        -0.396343
 C        -0.482734        -0.086124         0.484694
 O         0.219184        -0.155464         1.513260
 C        -0.794695         1.284351        -0.264568
 O        -1.324628         1.056399        -1.540486
 H        -4.453480         1.089798        -1.844145
 H        -4.496358        -0.080410        -0.626411
 H        -3.645495         1.376029        -0.144323
 H        -3.284986        -1.314488        -2.982460
 H        -1.511891        -0.909757        -3.313990
 H        -2.804776        -1.690918        -0.459638
 H        -0.601624        -2.144548         0.174928
 H         0.152133        -1.160868        -1.123641
 H        -1.364891         1.953628         0.480524
 H         0.242356         1.734223        -0.441124
