19
Iteration:  2133charge 0 multiplicity 1
 C        -3.852999         0.855153        -0.920088
 C        -2.482010         0.166257        -1.441875
 C        -2.430862        -0.968047        -2.467636
 C        -2.024039        -1.219599        -1.015518
 C        -0.489944        -1.273836        -0.569179
 C        -0.317815        -0.056891         0.385127
 O        -0.143818        -0.095899         1.587391
 C        -0.699658         1.297067        -0.281149
 O        -1.265369         0.928236        -1.547075
 H        -4.021418         1.786028        -1.561081
 H        -4.647092         0.173853        -1.291948
 H        -3.929866         1.021221         0.214602
 H        -3.308909        -1.460823        -2.794289
 H        -1.667544        -0.965005        -3.261191
 H        -2.752184        -1.836094        -0.423746
 H        -0.198286        -2.228388        -0.115977
 H         0.054652        -1.214267        -1.487088
 H        -1.384542         1.919479         0.427428
 H         0.148009         1.911121        -0.463636
