19
Iteration:  3689
 C        -3.726041         0.947222        -1.251494
 C        -2.427507         0.180637        -1.486251
 C        -2.283104        -0.875633        -2.525604
 C        -2.057814        -1.127438        -1.004572
 C        -0.621766        -1.250039        -0.632867
 C        -0.343418        -0.211339         0.385347
 O         0.184104        -0.328155         1.480107
 C        -1.029461         1.108230         0.057549
 O        -1.422587         1.181527        -1.317092
 H        -4.442479         0.298129        -0.707413
 H        -3.524268         1.736349        -0.611637
 H        -4.232395         1.316784        -2.185503
 H        -3.232378        -1.194273        -2.865592
 H        -1.454751        -0.946204        -3.248859
 H        -2.548659        -1.714108        -0.256571
 H        -0.368943        -2.309591        -0.403188
 H        -0.011726        -1.123932        -1.570360
 H        -1.855677         1.079117         0.692186
 H        -0.460218         1.970146         0.210855
