19
Iteration:  3620
 C        -3.922505         0.719825        -0.951346
 C        -2.488556         0.195740        -1.456319
 C        -2.196074        -0.688470        -2.668563
 C        -1.954635        -1.257511        -1.208273
 C        -0.651961        -1.493746        -0.517535
 C        -0.417486        -0.181226         0.402406
 O        -0.054080        -0.165644         1.576193
 C        -0.531242         1.145459        -0.239497
 O        -1.492290         1.307049        -1.269510
 H        -4.868918         0.194094        -1.146529
 H        -3.962655         0.836957         0.199906
 H        -4.143448         1.686780        -1.363558
 H        -3.001855        -1.156011        -3.384933
 H        -1.324295        -0.426255        -3.311718
 H        -2.852001        -1.851760        -0.897224
 H        -0.739752        -2.435974         0.075630
 H         0.285325        -1.720103        -1.107301
 H        -0.901598         1.827128         0.482718
 H         0.372463         1.536510        -0.613970
