19
Iteration:   909charge 0 multiplicity 1
 C        -3.698697         0.667612        -0.763978
 C        -2.402453         0.162832        -1.389508
 C        -2.399101        -0.977636        -2.366625
 C        -1.939677        -1.195244        -0.957238
 C        -0.389120        -1.199023        -0.610594
 C        -0.390843        -0.015434         0.297334
 O        -0.474391        -0.205124         1.493569
 C        -0.615041         1.318575        -0.347760
 O        -1.354707         1.094353        -1.641834
 H        -4.385461         1.156299        -1.512520
 H        -4.226328        -0.267654        -0.449940
 H        -3.534503         1.292031         0.106572
 H        -3.422003        -1.249431        -2.632626
 H        -1.620818        -1.026204        -3.174695
 H        -2.617024        -1.573166        -0.154974
 H        -0.263378        -2.134476        -0.011999
 H         0.313852        -1.322591        -1.545756
 H        -1.120879         1.970122         0.370204
 H         0.324827         1.816971        -0.806723
