19
Iteration:  2423
 C        -3.822306         0.759501        -1.472819
 C        -2.475058         0.145050        -1.505959
 C        -1.912413        -0.794630        -2.482361
 C        -2.130686        -1.276630        -1.046843
 C        -1.147103        -1.395421         0.182382
 C        -0.392938        -0.148221         0.375440
 O         0.781845        -0.164660         0.822349
 C        -1.055193         1.166476         0.095031
 O        -1.604317         1.280763        -1.225789
 H        -3.987571         1.182894        -2.503355
 H        -4.585474         0.018941        -1.257257
 H        -4.015487         1.573157        -0.770943
 H        -2.610598        -1.248903        -3.173146
 H        -0.904013        -0.620397        -2.797572
 H        -3.054127        -1.900224        -1.008724
 H        -1.705903        -1.632586         1.106204
 H        -0.326176        -2.052993         0.205920
 H        -1.906093         1.340253         0.827453
 H        -0.317995         2.041573         0.234324
