19
Iteration:  2516charge 0 multiplicity 1
 C        -3.797301         0.841416        -2.092800
 C        -2.569440         0.197862        -1.426870
 C        -1.769978        -0.933413        -2.164759
 C        -2.335926        -1.193882        -0.757403
 C        -1.197304        -1.381961         0.242610
 C        -0.283511        -0.188913         0.374204
 O         0.936856        -0.096057         0.326855
 C        -1.020636         1.100618         0.320509
 O        -1.784707         1.276012        -0.924106
 H        -3.322750         1.802783        -2.181625
 H        -4.179736         0.356804        -2.996539
 H        -4.679218         1.114991        -1.523936
 H        -2.360604        -1.503634        -2.979628
 H        -0.691528        -0.916797        -2.419243
 H        -3.145898        -1.928940        -0.561515
 H        -1.505515        -1.898400         1.168870
 H        -0.546337        -2.221203        -0.257153
 H        -1.765873         1.111808         1.200756
 H        -0.355557         1.942315         0.311330
