19
Iteration:  2904charge 0 multiplicity 1
 C        -3.470142         0.806926        -0.640115
 C        -2.442299         0.136122        -1.374260
 C        -2.481861        -0.923112        -2.472348
 C        -1.872541        -1.253270        -1.117638
 C        -0.416300        -1.289932        -0.555302
 C        -0.416177        -0.027677         0.355775
 O        -0.497224        -0.104859         1.596841
 C        -0.773154         1.277137        -0.415667
 O        -1.293964         0.972199        -1.720831
 H        -3.562433         1.867758        -0.829221
 H        -4.489819         0.447865        -0.956821
 H        -3.381956         0.491538         0.399694
 H        -3.551458        -1.331681        -2.509994
 H        -1.779793        -0.750387        -3.331892
 H        -2.612450        -1.802318        -0.527723
 H        -0.404903        -2.245200         0.029739
 H         0.503293        -1.133065        -1.153358
 H        -1.500635         1.888752         0.152969
 H         0.074031         1.998978        -0.503774
