19
Iteration:  4821
 C        -3.992624         0.603089        -1.664080
 C        -2.513062         0.282944        -1.456888
 C        -1.664735        -0.542558        -2.494349
 C        -2.204809        -1.162922        -1.140650
 C        -1.337701        -1.184261         0.039850
 C        -0.206987        -0.167098         0.326124
 O         0.632729        -0.553773         1.166356
 C        -0.482896         1.156609        -0.429906
 O        -1.926679         1.282873        -0.595617
 H        -4.460077        -0.305115        -2.182110
 H        -4.490139         0.723856        -0.708659
 H        -4.419571         1.440685        -2.440054
 H        -2.279520        -0.916310        -3.386653
 H        -0.610347        -0.329105        -2.563333
 H        -3.101053        -1.739894        -1.334207
 H        -1.868215        -1.402938         0.910194
 H        -0.880125        -2.161934         0.025822
 H        -0.184129         2.121609        -0.029366
 H         0.013788         1.102184        -1.395955
