19
Iteration:    43
 C        -3.994334         0.456274        -1.240384
 C        -2.476331         0.176481        -1.378160
 C        -2.426692        -1.134016        -2.233915
 C        -2.028346        -1.139472        -0.767477
 C        -0.534387        -1.173489        -0.471707
 C        -0.260880         0.024355         0.363179
 O         0.002810        -0.106137         1.553964
 C        -0.438428         1.325048        -0.525386
 O        -1.557277         1.204957        -1.513780
 H        -4.455115         0.184406        -0.228958
 H        -4.064745         1.579106        -1.244378
 H        -4.520936        -0.001542        -2.060706
 H        -3.400826        -1.475305        -2.496738
 H        -1.672832        -1.202543        -2.981229
 H        -2.714035        -1.504371         0.040281
 H        -0.138828        -2.058479         0.031245
 H        -0.071156        -1.043019        -1.441286
 H        -0.448106         2.236015         0.049703
 H         0.441911         1.319747        -1.095639
