19
Iteration:   942
 C        -3.660413         0.923603        -1.102040
 C        -2.420930         0.117761        -1.368984
 C        -2.537563        -1.188004        -2.213202
 C        -1.872649        -1.216342        -0.912246
 C        -0.306092        -1.123559        -0.805478
 C        -0.398849        -0.118936         0.341491
 O        -0.250707        -0.238393         1.573541
 C        -0.857431         1.284525        -0.207210
 O        -1.360237         1.125271        -1.572445
 H        -3.919796         1.507329        -2.052863
 H        -4.579497         0.316763        -0.876450
 H        -3.643602         1.639958        -0.286324
 H        -3.616525        -1.456168        -2.342716
 H        -2.008144        -1.435882        -3.155202
 H        -2.432663        -1.623139        -0.049736
 H         0.023452        -2.133312        -0.403059
 H         0.160190        -0.756515        -1.810361
 H        -1.514645         1.710266         0.548058
 H         0.126237         1.914594        -0.213941
