19
Iteration:  1238
 C        -3.856822         0.556631        -1.864379
 C        -2.421693         0.308644        -1.487401
 C        -1.634187        -0.774086        -2.187445
 C        -2.238535        -1.051729        -0.791377
 C        -1.472837        -1.351569         0.464686
 C        -0.296504        -0.245975         0.395993
 O         0.905474        -0.306343         0.164466
 C        -1.100113         1.140409         0.274531
 O        -1.608932         1.365656        -1.083121
 H        -3.939163         1.460780        -2.522400
 H        -4.316096        -0.196737        -2.546236
 H        -4.551027         0.614642        -0.928708
 H        -1.971921        -1.284032        -3.114354
 H        -0.587545        -0.656866        -2.159978
 H        -3.073845        -1.730107        -0.770702
 H        -2.004284        -1.045010         1.340726
 H        -1.226182        -2.431767         0.473093
 H        -2.028182         1.340840         0.895658
 H        -0.591550         2.027583         0.512497
