19
Iteration:  4850charge 0 multiplicity 1
 C        -3.921815         0.662570        -1.711179
 C        -2.503261         0.259183        -1.480874
 C        -1.675842        -0.470585        -2.455211
 C        -2.106711        -1.201064        -1.097018
 C        -1.396094        -1.306470         0.182637
 C        -0.297747        -0.270861         0.315958
 O         0.684576        -0.377707         0.967835
 C        -0.541946         1.033861        -0.331882
 O        -1.945453         1.297438        -0.650237
 H        -4.416706         0.110351        -2.504097
 H        -4.558304         0.469118        -0.773217
 H        -4.028477         1.640502        -1.873009
 H        -2.183517        -0.925916        -3.323666
 H        -0.685940        -0.246169        -2.636737
 H        -3.008310        -1.747062        -1.357658
 H        -2.148183        -1.062294         1.036440
 H        -1.136176        -2.349097         0.411194
 H        -0.227643         1.839837         0.307135
 H         0.072698         1.104426        -1.260124
