19
Iteration:    18charge 0 multiplicity 1
 C        -4.000998         0.589872        -1.160614
 C        -2.550692         0.174249        -1.557878
 C        -2.321808        -1.206195        -2.334195
 C        -2.098384        -1.058293        -0.816216
 C        -0.612621        -1.220086        -0.427227
 C        -0.274535        -0.049534         0.454348
 O         0.254804        -0.021117         1.543294
 C        -0.673064         1.247908        -0.350468
 O        -1.497816         1.159825        -1.610351
 H        -4.106541         0.775437        -0.044245
 H        -4.239328         1.600036        -1.595870
 H        -4.645380        -0.218721        -1.496249
 H        -3.172591        -1.757568        -2.770267
 H        -1.370911        -1.212540        -2.845847
 H        -2.834983        -1.454419        -0.013580
 H        -0.337024        -2.247801        -0.086788
 H        -0.102020        -1.003293        -1.381704
 H        -1.066145         1.964068         0.412805
 H         0.327578         1.637966        -0.637730
