19
Iteration:  3612charge 0 multiplicity 1
 C        -3.933248         0.706655        -0.899101
 C        -2.469727         0.209457        -1.416198
 C        -2.104007        -0.699229        -2.638873
 C        -1.982122        -1.203836        -1.235500
 C        -0.624744        -1.513130        -0.474070
 C        -0.429015        -0.207155         0.364448
 O        -0.105550        -0.175403         1.544304
 C        -0.541244         1.158559        -0.295579
 O        -1.543337         1.322353        -1.274799
 H        -4.882761         0.292420        -1.333745
 H        -3.959995         0.758389         0.158052
 H        -3.728087         1.773148        -1.168357
 H        -2.944165        -1.294700        -3.124492
 H        -1.247053        -0.385953        -3.242554
 H        -2.765651        -1.963572        -0.905268
 H        -0.728581        -2.454405         0.139135
 H         0.142417        -1.720564        -1.298786
 H        -0.751381         1.862642         0.511797
 H         0.422174         1.401902        -0.739945
