19
Iteration:  1023charge 0 multiplicity 1
 C        -3.939657         0.627132        -1.244047
 C        -2.483764         0.221664        -1.531220
 C        -2.135070        -0.816463        -2.564862
 C        -2.164477        -1.174596        -1.058612
 C        -1.033920        -1.481956        -0.121457
 C        -0.329608        -0.154131         0.459448
 O         0.575822        -0.012281         1.292074
 C        -0.842868         1.219207        -0.154180
 O        -1.446717         1.208848        -1.383992
 H        -4.163529         1.341012        -1.952592
 H        -4.499448        -0.236556        -1.425146
 H        -4.091631         0.969802        -0.223957
 H        -2.832244        -1.245918        -3.222246
 H        -1.057304        -0.815366        -2.842513
 H        -3.122876        -1.549106        -0.722191
 H        -1.417343        -2.191885         0.627007
 H        -0.283874        -2.055817        -0.638556
 H        -1.335732         1.662139         0.765980
 H         0.083687         1.728109        -0.160356
