19
Iteration:  3898
 C        -3.899234         0.949486        -1.698967
 C        -2.504616         0.325016        -1.537444
 C        -2.042612        -0.890444        -2.439414
 C        -2.234769        -1.128162        -0.994742
 C        -0.925009        -1.375934        -0.227986
 C        -0.314658        -0.248631         0.421970
 O         0.743494        -0.222654         0.981533
 C        -1.092434         0.964326         0.345572
 O        -1.507781         1.231531        -1.064972
 H        -4.743508         0.307740        -2.036688
 H        -4.184096         1.390363        -0.750551
 H        -3.814115         1.880066        -2.379838
 H        -2.716617        -1.295702        -3.133647
 H        -1.010297        -0.728430        -2.812332
 H        -3.253970        -1.581693        -0.850556
 H        -1.141384        -2.192731         0.490783
 H        -0.089266        -1.860632        -0.848959
 H        -2.047738         0.974670         0.921672
 H        -0.410952         1.847408         0.470971
