19
Iteration:    20
 C        -4.005987         0.575664        -1.166026
 C        -2.557344         0.174262        -1.561622
 C        -2.322007        -1.201240        -2.323354
 C        -2.096851        -1.053223        -0.807261
 C        -0.610239        -1.209642        -0.440607
 C        -0.275307        -0.046670         0.459777
 O         0.246054        -0.030063         1.555560
 C        -0.649598         1.249119        -0.368900
 O        -1.499281         1.174284        -1.612631
 H        -4.108344         0.710692        -0.014246
 H        -4.261523         1.613576        -1.578924
 H        -4.642550        -0.203285        -1.525104
 H        -3.158895        -1.756123        -2.739684
 H        -1.395510        -1.276729        -2.823627
 H        -2.813773        -1.509341         0.000577
 H        -0.368109        -2.247632        -0.123893
 H        -0.107557        -1.005932        -1.377110
 H        -1.016265         1.954935         0.383142
 H         0.311360         1.592160        -0.631512
