19
Iteration:  4272charge 0 multiplicity 1
 C        -3.874549         0.729475        -1.739612
 C        -2.466730         0.257818        -1.452738
 C        -1.735619        -0.775914        -2.368567
 C        -2.285495        -1.115335        -1.041214
 C        -1.184295        -1.420010         0.006818
 C        -0.296436        -0.196884         0.221616
 O         0.647494        -0.380774         0.950825
 C        -0.662071         1.203414        -0.006589
 O        -1.905235         1.337076        -0.842888
 H        -4.460745        -0.074379        -2.332382
 H        -4.159043         0.898902        -0.600700
 H        -3.824872         1.649729        -2.285935
 H        -2.247686        -1.186877        -3.318978
 H        -0.660636        -0.784807        -2.521210
 H        -3.181828        -1.667691        -0.960501
 H        -1.688331        -1.682656         0.924265
 H        -0.509107        -2.203668        -0.511658
 H        -0.961264         1.546847         0.983497
 H         0.059359         2.044629        -0.372939
