19
Iteration:   745charge 0 multiplicity 1
 C        -3.997089         0.740402        -1.474014
 C        -2.546451         0.155892        -1.435108
 C        -2.291915        -1.044555        -2.368704
 C        -2.097796        -1.219520        -0.862407
 C        -0.591056        -1.240202        -0.445487
 C        -0.258928        -0.067593         0.401042
 O         0.450371        -0.100350         1.411005
 C        -0.864040         1.239181        -0.057244
 O        -1.543819         1.145845        -1.374856
 H        -4.219127         1.058024        -2.514659
 H        -4.767867         0.039941        -1.169582
 H        -4.111564         1.617745        -0.926006
 H        -3.185700        -1.429573        -2.856260
 H        -1.435548        -0.948952        -3.009117
 H        -2.706727        -1.840994        -0.209351
 H        -0.419727        -2.188645         0.018495
 H        -0.034860        -1.282383        -1.422655
 H        -1.535642         1.488471         0.762416
 H        -0.132245         2.028112        -0.179079
