19
Iteration:   856charge 0 multiplicity 1
 C        -3.617969         0.505462        -0.685921
 C        -2.443786         0.050184        -1.445629
 C        -2.422146        -0.824019        -2.622827
 C        -1.858719        -1.274311        -1.292156
 C        -0.546155        -1.346337        -0.367023
 C        -0.467278        -0.015297         0.384173
 O        -0.387898         0.113341         1.579817
 C        -0.438973         1.231698        -0.509964
 O        -1.536201         1.159778        -1.378708
 H        -3.690602         1.517403        -1.032688
 H        -4.524928        -0.060874        -0.729617
 H        -3.297206         0.572154         0.299194
 H        -3.268558        -1.514240        -2.835429
 H        -1.764221        -0.446667        -3.498487
 H        -2.725326        -1.827545        -0.884609
 H        -0.700151        -2.212467         0.322796
 H         0.341176        -1.682298        -0.971856
 H        -0.327025         2.215788        -0.047143
 H         0.437569         1.182228        -1.202281
