19
Iteration:  2038charge 0 multiplicity 1
 C        -3.920368         0.818864        -1.501669
 C        -2.512835         0.208197        -1.482617
 C        -2.265512        -0.903994        -2.471311
 C        -2.169913        -1.310129        -1.010270
 C        -0.909884        -1.466882        -0.209085
 C        -0.380642        -0.072630         0.556497
 O         0.650853        -0.139800         1.188908
 C        -0.899479         1.294533         0.030403
 O        -1.422738         1.171848        -1.331518
 H        -4.069164         1.322637        -2.429323
 H        -4.660939         0.020540        -1.461737
 H        -4.093373         1.506323        -0.690237
 H        -3.159201        -1.226385        -2.967165
 H        -1.322963        -0.930387        -3.070668
 H        -3.029524        -1.915199        -0.664242
 H        -0.881238        -2.125331         0.728890
 H         0.098094        -1.684817        -0.671987
 H        -1.639349         1.795934         0.664977
 H         0.006117         1.940003         0.059656
