19
Iteration:  1652
 C        -3.831393         0.843644        -1.632055
 C        -2.479918         0.194438        -1.480529
 C        -2.377224        -0.973765        -2.390380
 C        -2.224461        -1.136128        -0.855986
 C        -0.788127        -1.359624        -0.303775
 C        -0.257464        -0.079050         0.388710
 O         0.621960        -0.172965         1.221233
 C        -1.039497         1.192611         0.109239
 O        -1.406464         1.128135        -1.297917
 H        -3.625179         1.752057        -2.257232
 H        -4.564411         0.107688        -2.022400
 H        -4.304602         0.996498        -0.574689
 H        -3.276304        -1.217156        -2.983228
 H        -1.426653        -1.019080        -2.976690
 H        -2.971284        -1.615394        -0.234462
 H        -0.756816        -2.083420         0.502758
 H        -0.063809        -1.659698        -1.074405
 H        -1.905226         1.191434         0.767710
 H        -0.378443         2.110257         0.218610
