19
Iteration:  1146charge 0 multiplicity 1
 C        -3.660230         0.728579        -2.214495
 C        -2.452139         0.210963        -1.401550
 C        -1.761802        -1.007137        -2.065287
 C        -2.391332        -1.096104        -0.661435
 C        -1.243955        -1.323632         0.394178
 C        -0.229579        -0.162246         0.270878
 O         0.969251        -0.195036         0.076511
 C        -1.157395         1.094276         0.368992
 O        -1.864028         1.383566        -0.846602
 H        -3.199982         1.279009        -3.051795
 H        -4.154764        -0.085110        -2.745706
 H        -4.217010         1.360884        -1.592030
 H        -2.106787        -1.374765        -3.058732
 H        -0.650410        -1.025761        -2.148973
 H        -3.360871        -1.634324        -0.521235
 H        -1.675219        -1.543943         1.447839
 H        -0.845446        -2.331377         0.122680
 H        -1.923322         0.959105         1.140126
 H        -0.599805         2.084466         0.579628
