19
Iteration:  2188
 C        -3.723494         0.687539        -0.882795
 C        -2.412677         0.113686        -1.380469
 C        -2.465517        -1.014538        -2.351337
 C        -1.991461        -1.306094        -1.029890
 C        -0.514548        -1.225850        -0.625195
 C        -0.353417        -0.020687         0.316140
 O        -0.401219        -0.117051         1.542196
 C        -0.502682         1.367720        -0.323605
 O        -1.302450         1.129055        -1.566340
 H        -3.992208         1.694342        -1.343892
 H        -4.582611        -0.025553        -1.009258
 H        -3.538815         0.824483         0.259210
 H        -3.407455        -1.378777        -2.710438
 H        -1.810162        -1.181360        -3.178892
 H        -2.644881        -1.751320        -0.262573
 H        -0.442695        -2.165579        -0.070186
 H        -0.007121        -1.326628        -1.538438
 H        -1.018718         2.169367         0.337823
 H         0.437530         1.759518        -0.612318
