19
Iteration:  4637charge 0 multiplicity 1
 C        -3.925892         0.650078        -1.605050
 C        -2.474300         0.235940        -1.461966
 C        -1.833413        -0.484422        -2.600818
 C        -2.138715        -1.194050        -1.205070
 C        -1.232499        -1.299695         0.052753
 C        -0.297822        -0.225319         0.319229
 O         0.519849        -0.378248         1.206729
 C        -0.468730         1.152448        -0.444123
 O        -1.837299         1.199271        -0.561897
 H        -4.569383        -0.206577        -1.937398
 H        -4.418791         0.959258        -0.760803
 H        -3.962861         1.509397        -2.405822
 H        -2.628811        -0.838917        -3.270995
 H        -0.782094        -0.477423        -2.938872
 H        -3.001991        -1.821097        -1.238591
 H        -2.035649        -1.054428         0.824100
 H        -0.762953        -2.369629         0.052864
 H        -0.119753         1.858006         0.320182
 H         0.001254         1.312532        -1.433833
