19
Iteration:  3410
 C        -3.945581         0.825789        -1.274560
 C        -2.524470         0.264445        -1.425481
 C        -2.143181        -0.785323        -2.430374
 C        -2.098926        -1.190491        -1.023407
 C        -0.755869        -1.391917        -0.401002
 C        -0.301733        -0.202416         0.357383
 O         0.349828        -0.267645         1.384100
 C        -0.861539         1.204265        -0.089492
 O        -1.483251         1.178028        -1.355386
 H        -3.975174         1.890363        -1.051672
 H        -4.506195         0.508605        -2.176630
 H        -4.390725         0.312278        -0.405765
 H        -2.798060        -1.062295        -3.255176
 H        -1.140833        -0.734588        -2.770937
 H        -2.892664        -1.816872        -0.598651
 H        -0.652597        -2.288987         0.269364
 H         0.031490        -1.528661        -1.240945
 H        -1.674405         1.528744         0.587622
 H        -0.105683         1.962367        -0.208638
