19
Iteration:   326
 C        -3.844510         0.575027        -1.226145
 C        -2.363958         0.110242        -1.643471
 C        -2.119033        -1.043352        -2.575512
 C        -2.205480        -1.224302        -1.031194
 C        -1.081544        -1.266360         0.070002
 C        -0.316751         0.083957         0.479510
 O         0.793101        -0.010120         0.950675
 C        -1.208516         1.362929         0.054376
 O        -1.387638         1.073039        -1.389651
 H        -3.802829         1.046397        -0.235710
 H        -4.471826         1.208506        -1.841394
 H        -4.497439        -0.274499        -0.906320
 H        -2.941137        -1.499492        -3.147437
 H        -1.184951        -1.051702        -3.080201
 H        -3.078338        -1.691431        -0.756175
 H        -1.598823        -1.635710         0.938007
 H        -0.131184        -1.928467         0.003815
 H        -2.141379         1.283109         0.538031
 H        -0.751624         2.396934         0.120554
