19
Iteration:   895charge 0 multiplicity 1
 C        -3.731469         0.600534        -0.653804
 C        -2.462151         0.181467        -1.375127
 C        -2.319758        -0.876475        -2.465602
 C        -1.898637        -1.165253        -0.969583
 C        -0.494137        -1.289283        -0.609100
 C        -0.457041        -0.065173         0.337085
 O        -0.477456        -0.084646         1.543162
 C        -0.551127         1.278985        -0.520215
 O        -1.346951         1.055159        -1.600689
 H        -4.438853         1.257953        -1.261839
 H        -4.330336        -0.282600        -0.277519
 H        -3.464913         1.200227         0.300800
 H        -2.992524        -1.495745        -2.966240
 H        -1.459285        -0.657589        -3.048003
 H        -2.517932        -1.915480        -0.460077
 H        -0.217562        -2.138121        -0.044170
 H         0.178287        -1.050242        -1.447999
 H        -0.950779         2.092779         0.099222
 H         0.513725         1.514895        -0.741132
