19
Iteration:   438
 C        -3.897658         0.479820        -1.933136
 C        -2.459503         0.179882        -1.410694
 C        -1.678221        -0.953394        -2.213284
 C        -2.287337        -1.229953        -0.861531
 C        -1.274154        -1.280690         0.227121
 C        -0.268832        -0.072882         0.223152
 O         0.941415        -0.192105         0.464788
 C        -0.868387         1.348591         0.072353
 O        -1.994336         1.360491        -0.759321
 H        -3.945722         1.456451        -2.405479
 H        -4.122648        -0.399379        -2.583990
 H        -4.599146         0.570029        -1.026050
 H        -2.081715        -1.213023        -3.246540
 H        -0.562215        -0.923717        -2.192680
 H        -3.158447        -1.942158        -0.960540
 H        -1.823009        -1.304906         1.210860
 H        -0.615607        -2.194071         0.095679
 H        -1.177491         1.660041         1.072415
 H        -0.071788         1.980809        -0.342229
