19
Iteration:  4125
 C        -4.062681         0.694966        -1.785198
 C        -2.599439         0.282029        -1.459101
 C        -1.869465        -0.495711        -2.554885
 C        -2.163915        -1.119616        -1.060085
 C        -1.118091        -1.435571        -0.026928
 C        -0.199316        -0.252062         0.465774
 O         0.733637        -0.380529         1.284878
 C        -0.566409         1.046967        -0.350316
 O        -1.914979         1.323114        -0.747624
 H        -4.482339        -0.130286        -2.359989
 H        -4.597590         0.802504        -0.886709
 H        -4.174239         1.631022        -2.410328
 H        -2.487660        -1.061880        -3.296346
 H        -0.875855        -0.318251        -2.906307
 H        -3.085238        -1.862608        -1.093496
 H        -1.654082        -1.646860         0.940963
 H        -0.497610        -2.288612        -0.192968
 H        -0.221127         1.965069         0.241261
 H         0.112119         1.209609        -1.194693
