19
Iteration:  3863charge 0 multiplicity 1
 C        -3.885665         0.695862        -1.521877
 C        -2.479904         0.274813        -1.448679
 C        -2.010420        -0.653121        -2.478196
 C        -2.219628        -1.141067        -1.112504
 C        -1.021838        -1.468488        -0.143080
 C        -0.298677        -0.241989         0.384985
 O         0.667957        -0.391287         1.134821
 C        -0.936138         1.151740         0.119061
 O        -1.571729         1.380542        -1.210415
 H        -4.704722        -0.081138        -1.529776
 H        -4.127956         1.400585        -0.749237
 H        -3.978628         1.277771        -2.537558
 H        -2.722797        -0.760157        -3.329574
 H        -1.018590        -0.491111        -2.749358
 H        -3.059781        -1.803766        -0.842333
 H        -1.364019        -1.913770         0.799616
 H        -0.163981        -1.928407        -0.603963
 H        -1.764325         1.288763         0.849810
 H        -0.212292         1.800484         0.464224
