19
Iteration:  1657charge 0 multiplicity 1
 C        -3.842982         0.787640        -1.617109
 C        -2.433992         0.216408        -1.466646
 C        -2.352535        -0.938529        -2.407180
 C        -2.228539        -1.139292        -0.862770
 C        -0.809201        -1.359245        -0.264620
 C        -0.268849        -0.126129         0.334303
 O         0.599434        -0.136880         1.187264
 C        -1.016271         1.168191         0.100225
 O        -1.419208         1.173469        -1.287390
 H        -3.636077         1.661047        -2.207404
 H        -4.573677         0.106286        -2.027272
 H        -4.206662         1.092132        -0.674623
 H        -3.228192        -1.328945        -2.938660
 H        -1.374557        -0.999309        -2.851334
 H        -3.036448        -1.479631        -0.190862
 H        -0.946084        -2.056603         0.597832
 H        -0.084227        -1.876534        -0.967888
 H        -1.835528         1.061546         0.915791
 H        -0.336146         1.961678         0.309145
