19
Iteration:  2841
 C        -3.838844         0.664955        -0.789343
 C        -2.381916         0.176185        -1.286910
 C        -2.449868        -0.880219        -2.323090
 C        -1.919261        -1.207498        -0.953263
 C        -0.284098        -1.353272        -0.550619
 C        -0.343773        -0.077220         0.285673
 O        -0.707154        -0.157924         1.445449
 C        -0.298687         1.251109        -0.556397
 O        -1.416774         1.219847        -1.526062
 H        -4.354582         1.182035        -1.610765
 H        -4.434686        -0.177659        -0.358750
 H        -3.713070         1.294479         0.112878
 H        -3.431766        -1.285726        -2.803445
 H        -1.730026        -0.898812        -3.208881
 H        -2.458910        -1.820015        -0.234360
 H        -0.074205        -2.275141        -0.123911
 H         0.410638        -1.125330        -1.354415
 H        -0.493386         2.120022         0.163298
 H         0.613120         1.142761        -1.044009
