19
Iteration:  3753
 C        -3.874030         0.823628        -1.398591
 C        -2.493449         0.212418        -1.490854
 C        -2.207182        -0.749294        -2.661541
 C        -2.203741        -1.172159        -0.981669
 C        -0.841903        -1.292561        -0.418080
 C        -0.320532        -0.181483         0.490515
 O         0.535106        -0.350689         1.409557
 C        -0.984134         1.183397         0.087457
 O        -1.408375         1.157427        -1.284764
 H        -4.523048         0.171744        -1.986440
 H        -4.280821         0.779696        -0.406690
 H        -3.826879         1.890679        -1.644385
 H        -2.980369        -1.071519        -3.337891
 H        -1.169579        -0.684987        -3.140242
 H        -3.086173        -1.668939        -0.611050
 H        -0.713027        -2.307193         0.006479
 H        -0.089748        -1.280459        -1.249398
 H        -1.866390         1.547451         0.811950
 H        -0.198909         1.852890         0.203929
