19
Iteration:  4521
 C        -3.985337         0.660983        -1.928532
 C        -2.531406         0.287319        -1.527019
 C        -1.753582        -0.682108        -2.430484
 C        -2.174022        -1.045563        -1.089634
 C        -1.312815        -1.291924         0.177690
 C        -0.211695        -0.269903         0.419365
 O         0.924278        -0.530394         0.796459
 C        -0.741448         1.188551         0.062786
 O        -1.964151         1.336430        -0.758461
 H        -4.488757        -0.262098        -2.301375
 H        -4.473261         1.002171        -0.954712
 H        -3.809483         1.468499        -2.613606
 H        -2.474450        -0.890244        -3.272659
 H        -0.610985        -0.551307        -2.593354
 H        -3.028615        -1.730579        -1.021183
 H        -1.955868        -1.089423         1.092683
 H        -0.895274        -2.329524         0.331859
 H        -0.996108         1.624601         1.099032
 H         0.084461         1.719470        -0.421152
