19
Iteration:    81charge 0 multiplicity 1
 C        -3.857352         0.759465        -0.949508
 C        -2.540642         0.051058        -1.307405
 C        -2.249408        -1.070522        -2.277568
 C        -1.888411        -1.389423        -0.845367
 C        -0.427705        -1.396411        -0.425591
 C        -0.255094        -0.005054         0.241104
 O        -0.324803         0.223698         1.416777
 C        -0.479997         1.198575        -0.608073
 O        -1.631491         1.158234        -1.454916
 H        -4.630822         0.070109        -0.695030
 H        -3.712314         1.416905        -0.086467
 H        -4.239918         1.393233        -1.810866
 H        -3.191783        -1.630819        -2.612951
 H        -1.441005        -0.932062        -3.057401
 H        -2.608629        -2.042954        -0.306783
 H        -0.118451        -2.331628         0.094355
 H         0.103771        -1.340592        -1.402597
 H        -0.693226         2.080315         0.040405
 H         0.375248         1.474936        -1.317608
