19
Iteration:   382
 C        -4.067261         0.641984        -1.913096
 C        -2.623234         0.160267        -1.401892
 C        -1.927602        -0.846404        -2.231024
 C        -2.281040        -1.274263        -0.758903
 C        -1.044658        -1.432427         0.139062
 C        -0.169993        -0.144710         0.401877
 O         0.994232         0.045809         0.739441
 C        -0.959122         1.141555         0.040515
 O        -1.754817         1.298006        -1.148933
 H        -3.990804         1.712222        -1.825300
 H        -4.274065         0.483586        -2.988441
 H        -4.922731         0.154610        -1.323765
 H        -2.322511        -1.393917        -3.089046
 H        -0.822965        -0.527367        -2.320837
 H        -3.046905        -2.007922        -0.796560
 H        -1.398713        -1.926984         1.048463
 H        -0.271781        -2.181157        -0.293767
 H        -1.541775         1.354887         0.922197
 H        -0.168505         1.923037         0.057043
