19
Iteration:  2378charge 0 multiplicity 1
 C        -4.033862         0.704351        -1.541069
 C        -2.516852         0.228536        -1.501585
 C        -2.145181        -0.828050        -2.490125
 C        -2.222825        -1.156076        -0.942772
 C        -0.923484        -1.338735        -0.071062
 C        -0.261426        -0.104451         0.463630
 O         0.731673        -0.158391         1.146173
 C        -1.006087         1.183152         0.041144
 O        -1.383207         1.140119        -1.350807
 H        -4.211923         1.751702        -1.913850
 H        -4.601079        -0.112024        -2.045520
 H        -4.513388         0.647932        -0.546466
 H        -2.937189        -1.259070        -3.167772
 H        -1.145255        -0.687266        -2.914788
 H        -3.039168        -1.814791        -0.535223
 H        -1.166968        -2.034671         0.735701
 H        -0.200932        -1.831853        -0.686007
 H        -1.846576         1.278422         0.803558
 H        -0.390710         2.124605         0.202416
