19
Iteration:  1032
 C        -3.959931         0.630415        -1.269115
 C        -2.522318         0.200472        -1.512234
 C        -2.011762        -0.777117        -2.549315
 C        -2.215143        -1.185278        -1.074754
 C        -1.059061        -1.464355        -0.042289
 C        -0.294621        -0.156719         0.458865
 O         0.632153        -0.106068         1.246301
 C        -0.833154         1.271873        -0.133472
 O        -1.510465         1.214198        -1.420566
 H        -4.357275         1.399939        -1.908494
 H        -4.642339        -0.192928        -1.411202
 H        -4.003003         0.905097        -0.211027
 H        -2.587770        -1.284029        -3.325148
 H        -0.968596        -0.513211        -2.879302
 H        -3.092471        -1.731223        -0.790320
 H        -1.511340        -1.878139         0.948732
 H        -0.301468        -2.232755        -0.326749
 H        -1.615424         1.714234         0.504426
 H         0.079446         1.888597        -0.192009
