19
Iteration:  1900
 C        -3.913540         0.618753        -1.724461
 C        -2.471683         0.256483        -1.495618
 C        -1.709257        -0.734289        -2.281770
 C        -2.136314        -1.069667        -0.886123
 C        -1.350096        -1.463772         0.426951
 C        -0.367623        -0.233972         0.524830
 O         0.842299        -0.323617         0.382707
 C        -1.050421         1.137168         0.148722
 O        -1.594772         1.449476        -1.196564
 H        -4.087450         1.172986        -2.711116
 H        -4.585007        -0.345579        -1.739785
 H        -4.164188         1.313188        -0.875566
 H        -2.058072        -1.334970        -3.147168
 H        -0.605490        -0.501239        -2.324710
 H        -3.024382        -1.697816        -0.901524
 H        -2.189918        -1.735478         1.143256
 H        -0.828649        -2.370270         0.151175
 H        -1.897572         1.367374         0.745921
 H        -0.330300         2.028259         0.272835
