19
Iteration:  4222
 C        -4.011924         0.641671        -1.814739
 C        -2.615947         0.247987        -1.376093
 C        -1.894892        -0.492376        -2.485273
 C        -2.152066        -1.166406        -1.033544
 C        -1.133067        -1.409436         0.064043
 C        -0.297605        -0.263684         0.463349
 O         0.714749        -0.391559         1.108510
 C        -0.611874         1.136077        -0.233794
 O        -1.796575         1.327914        -0.853787
 H        -4.376282         0.076406        -2.682595
 H        -4.769759         0.704312        -1.024982
 H        -3.995787         1.704747        -2.284090
 H        -2.407812        -1.118514        -3.169362
 H        -1.093276         0.067059        -3.015741
 H        -3.007778        -1.968439        -1.122184
 H        -1.658118        -1.936238         0.927735
 H        -0.500374        -2.186647        -0.332432
 H        -0.368085         1.960301         0.573715
 H         0.279090         1.419368        -0.770416
