19
Iteration:  4052
 C        -4.008845         0.721447        -1.704944
 C        -2.616682         0.320252        -1.466575
 C        -1.914344        -0.663102        -2.442507
 C        -2.170066        -1.067171        -1.059582
 C        -1.064792        -1.493074        -0.060503
 C        -0.245167        -0.276760         0.363338
 O         0.694182        -0.356167         1.112008
 C        -0.708595         1.097329         0.013471
 O        -1.762896         1.354969        -1.012381
 H        -4.607166        -0.128038        -2.118408
 H        -4.373644         1.087557        -0.669817
 H        -3.967631         1.583966        -2.496403
 H        -2.456766        -1.070623        -3.342568
 H        -0.886917        -0.538240        -2.688217
 H        -2.996879        -1.822723        -1.033256
 H        -1.431054        -1.779715         0.943653
 H        -0.361606        -2.347390        -0.396341
 H        -1.035539         1.560728         0.908494
 H         0.143383         1.839916        -0.245669
