19
Iteration:  1488
 C        -3.820809         0.690487        -0.798129
 C        -2.463243         0.217987        -1.340301
 C        -2.413956        -0.838876        -2.350570
 C        -1.881925        -1.250091        -0.943558
 C        -0.430654        -1.420685        -0.490636
 C        -0.296904        -0.178595         0.248450
 O        -0.558059        -0.087952         1.443378
 C        -0.367382         1.213590        -0.512289
 O        -1.391615         1.235206        -1.564963
 H        -4.100889         1.594291        -1.249617
 H        -4.630163         0.028386        -1.043929
 H        -4.003684         0.816482         0.263745
 H        -3.393817        -1.277519        -2.550448
 H        -1.704338        -0.628617        -3.103006
 H        -2.632676        -1.839648        -0.312733
 H        -0.358008        -2.222971         0.294550
 H         0.385621        -1.497163        -1.289748
 H        -0.666966         1.918358         0.338551
 H         0.559890         1.581441        -1.003479
