19
Iteration:   700charge 0 multiplicity 1
 C        -3.768912         0.764296        -1.340034
 C        -2.447563         0.082221        -1.597033
 C        -2.306960        -1.062556        -2.559893
 C        -2.137356        -1.242786        -1.021452
 C        -0.823820        -1.315624        -0.171630
 C        -0.349726         0.008655         0.471633
 O         0.674300         0.038733         1.102495
 C        -1.233400         1.197356         0.134851
 O        -1.366371         1.130720        -1.302231
 H        -4.171874         1.397703        -2.142096
 H        -4.537021         0.053264        -1.078506
 H        -3.669260         1.425899        -0.520844
 H        -3.238645        -1.437024        -2.917396
 H        -1.484400        -1.127830        -3.189826
 H        -3.021653        -1.810849        -0.696588
 H        -0.934745        -1.983072         0.699962
 H         0.070785        -1.714595        -0.819876
 H        -2.202124         1.193536         0.595571
 H        -0.721012         2.150535         0.420988
