19
Iteration:  4984
 C        -3.930577         0.713103        -2.014098
 C        -2.514813         0.206916        -1.404933
 C        -1.486903        -0.478086        -2.200755
 C        -2.127861        -1.202651        -1.056923
 C        -1.496593        -1.233457         0.335006
 C        -0.300389        -0.200279         0.353034
 O         0.862490        -0.568243         0.485327
 C        -0.739988         1.161487        -0.089465
 O        -2.052315         1.243527        -0.577384
 H        -4.726694        -0.040813        -2.021156
 H        -4.146160         1.495715        -1.366669
 H        -3.707759         0.951430        -3.058928
 H        -1.785978        -0.860764        -3.178486
 H        -0.351231        -0.164101        -2.146053
 H        -2.832051        -2.018454        -1.345498
 H        -2.298723        -0.926138         1.114161
 H        -1.100346        -2.236614         0.591496
 H        -0.663733         1.822796         0.803552
 H        -0.004119         1.587910        -0.814868
