19
Iteration:   488charge 0 multiplicity 1
 C        -4.026026         0.385813        -1.979612
 C        -2.564580         0.113364        -1.430921
 C        -1.436080        -0.489668        -2.165658
 C        -1.989350        -1.205421        -0.892962
 C        -1.337461        -1.104379         0.501420
 C        -0.250391        -0.177042         0.255284
 O         0.906200        -0.525395         0.372677
 C        -0.798855         1.316827        -0.149353
 O        -2.243597         1.325909        -0.654333
 H        -4.012097         0.776496        -2.988682
 H        -4.644186        -0.489478        -1.883494
 H        -4.363830         1.242417        -1.420473
 H        -1.622510        -1.094313        -3.044972
 H        -0.452011         0.002665        -2.275535
 H        -2.506804        -2.039887        -1.235147
 H        -2.070680        -0.708507         1.145932
 H        -0.943923        -2.118739         0.799397
 H        -0.902796         1.846198         0.806853
 H        -0.071762         1.726039        -0.894593
