19
Iteration:  4909charge 0 multiplicity 1
 C        -3.831817         0.661581        -1.974941
 C        -2.477303         0.272121        -1.373491
 C        -1.741821        -0.699922        -2.297029
 C        -2.260896        -1.082922        -0.945282
 C        -1.289136        -1.404549         0.069153
 C        -0.276149        -0.196111         0.294085
 O         0.787815        -0.493470         0.760708
 C        -0.668873         1.240795        -0.059674
 O        -2.026866         1.394636        -0.670364
 H        -4.048040        -0.050376        -2.788163
 H        -4.564050         0.648941        -1.233249
 H        -3.638873         1.669959        -2.567317
 H        -2.355522        -0.998712        -3.142982
 H        -0.600509        -1.014353        -2.427607
 H        -3.156022        -1.745204        -0.866177
 H        -1.702762        -1.504445         1.064664
 H        -0.711712        -2.296909        -0.253672
 H        -0.759763         1.626682         0.989501
 H         0.092604         1.787578        -0.601765
