19
Iteration:  1107
 C        -3.896293         0.593932        -1.938730
 C        -2.520199         0.230210        -1.441146
 C        -1.768840        -0.862052        -2.192771
 C        -2.290056        -1.037264        -0.798780
 C        -1.220814        -1.380486         0.263182
 C        -0.310805        -0.166129         0.311361
 O         0.880328        -0.240903         0.449043
 C        -1.011377         1.182478         0.239602
 O        -1.669975         1.333808        -1.029886
 H        -3.803830         1.438108        -2.694637
 H        -4.245989        -0.280861        -2.549902
 H        -4.755324         0.936103        -1.272217
 H        -2.278655        -1.282082        -3.043129
 H        -0.665735        -0.651566        -2.360477
 H        -3.115124        -1.678021        -0.645709
 H        -1.685221        -1.511124         1.249753
 H        -0.581972        -2.270135         0.039141
 H        -1.663424         1.261266         1.141957
 H        -0.153909         1.862227         0.264952
