19
Iteration:   929
 C        -3.662306         0.794706        -0.997570
 C        -2.388478         0.120554        -1.425151
 C        -2.590690        -1.107201        -2.278721
 C        -1.859233        -1.234727        -0.898393
 C        -0.368008        -1.239114        -0.680360
 C        -0.367989        -0.021644         0.330773
 O        -0.380310        -0.265066         1.512860
 C        -0.733274         1.340425        -0.292412
 O        -1.328172         1.214253        -1.556542
 H        -4.077549         1.371491        -1.915426
 H        -4.369536        -0.027093        -0.662031
 H        -3.427733         1.509821        -0.153197
 H        -3.527754        -1.531070        -2.142646
 H        -2.030442        -1.271860        -3.207191
 H        -2.299185        -1.874806        -0.097786
 H         0.070267        -2.180053        -0.388556
 H         0.224660        -0.924459        -1.608232
 H        -1.476250         1.782092         0.366202
 H         0.056475         2.151179        -0.430782
