19
Iteration:  2475charge 0 multiplicity 1
 C        -3.830296         0.676891        -1.833369
 C        -2.449650         0.162401        -1.507652
 C        -1.867462        -0.922746        -2.305377
 C        -2.246476        -1.125495        -0.900466
 C        -1.270622        -1.285747         0.143617
 C        -0.259458        -0.095218         0.376461
 O         0.925454        -0.218598         0.461912
 C        -1.111826         1.141070         0.351433
 O        -1.620598         1.308089        -0.998460
 H        -3.932615         1.365285        -2.751036
 H        -4.460474        -0.256810        -1.958195
 H        -4.305118         1.173799        -0.956819
 H        -2.521582        -1.249789        -3.152134
 H        -0.782731        -0.944265        -2.437568
 H        -3.185787        -1.698752        -0.709233
 H        -1.828861        -1.346331         1.146718
 H        -0.600647        -2.123884        -0.109747
 H        -1.955015         0.976151         1.012667
 H        -0.669032         2.096313         0.748895
