19
Iteration:  4846charge 0 multiplicity 1
 C        -3.920457         0.613062        -1.694268
 C        -2.475766         0.278998        -1.479440
 C        -1.696890        -0.471343        -2.471906
 C        -2.103443        -1.175297        -1.101133
 C        -1.375324        -1.292779         0.160907
 C        -0.325889        -0.284462         0.304744
 O         0.680553        -0.409443         0.998662
 C        -0.522256         1.068014        -0.359655
 O        -1.970023         1.297321        -0.634558
 H        -4.480763         0.142770        -2.508714
 H        -4.445963         0.505472        -0.751683
 H        -4.017475         1.781520        -1.968742
 H        -2.244641        -0.895465        -3.280444
 H        -0.563462        -0.328380        -2.565608
 H        -2.965163        -1.846979        -1.239728
 H        -2.191326        -1.103365         0.898455
 H        -1.118980        -2.324304         0.558367
 H        -0.173186         1.970559         0.213424
 H         0.055549         1.085255        -1.314385
