19
Iteration:    36charge 0 multiplicity 1
 C        -4.001645         0.470106        -1.228106
 C        -2.510734         0.161526        -1.455008
 C        -2.382827        -1.126522        -2.206473
 C        -2.058231        -1.109306        -0.759059
 C        -0.589471        -1.141392        -0.512816
 C        -0.265583        -0.018937         0.427674
 O         0.081501        -0.102417         1.586126
 C        -0.477500         1.282142        -0.500557
 O        -1.529802         1.237854        -1.559297
 H        -4.264988         0.226453        -0.244679
 H        -4.208556         1.502895        -1.295374
 H        -4.661668        -0.140785        -1.927884
 H        -3.403958        -1.483419        -2.383191
 H        -1.551355        -1.395868        -2.947924
 H        -2.680923        -1.621835        -0.131410
 H        -0.310658        -2.066407        -0.025449
 H         0.043608        -0.994636        -1.423673
 H        -0.656577         2.211690         0.065677
 H         0.473698         1.423977        -1.134224
