19
Iteration:  4175charge 0 multiplicity 1
 C        -3.916214         0.666348        -1.559501
 C        -2.503143         0.247649        -1.486073
 C        -1.595774        -0.578969        -2.449713
 C        -2.173693        -1.149558        -1.196193
 C        -1.368820        -1.403360         0.019371
 C        -0.311088        -0.176754         0.244636
 O         0.522124        -0.287305         1.136865
 C        -0.485871         1.108711        -0.446263
 O        -1.938543         1.190703        -0.550447
 H        -4.550437        -0.245136        -1.829698
 H        -4.104904         1.029723        -0.425348
 H        -4.194117         1.432049        -2.247514
 H        -2.068048        -0.660715        -3.471224
 H        -0.546684        -0.401472        -2.532140
 H        -2.969236        -1.741318        -1.517931
 H        -1.906836        -1.425899         0.988329
 H        -0.595355        -2.230154        -0.092910
 H        -0.014950         2.075610        -0.172738
 H         0.040706         1.171692        -1.410484
