19
Iteration:   590
 C        -3.923281         0.591269        -1.895761
 C        -2.568562         0.160744        -1.400576
 C        -1.807486        -0.872123        -2.256459
 C        -2.269120        -1.199659        -0.872790
 C        -1.118873        -1.335210         0.201020
 C        -0.220102        -0.118770         0.262440
 O         0.945896        -0.098270         0.662774
 C        -0.840509         1.185993         0.030998
 O        -1.973731         1.332588        -0.908647
 H        -3.762519         1.222641        -2.756877
 H        -4.442136        -0.263697        -2.306386
 H        -4.594702         0.997086        -1.132432
 H        -2.331511        -1.310376        -3.109709
 H        -0.704212        -0.971054        -2.360153
 H        -3.161975        -1.879148        -0.731022
 H        -1.621041        -1.496235         1.095990
 H        -0.648800        -2.298638        -0.099823
 H        -1.127046         1.532146         1.043275
 H         0.002865         1.815396        -0.375483
