19
Iteration:  1383charge 0 multiplicity 1
 C        -3.774452         0.848991        -1.061412
 C        -2.490368         0.140496        -1.540282
 C        -2.364328        -0.966312        -2.514030
 C        -2.126008        -1.193029        -1.050233
 C        -0.700480        -1.371108        -0.464637
 C        -0.365208        -0.082848         0.456973
 O         0.235077        -0.069455         1.524016
 C        -0.866697         1.240460        -0.158801
 O        -1.312485         1.037202        -1.500771
 H        -4.059281         1.756571        -1.648422
 H        -4.733950         0.266059        -1.027072
 H        -3.545142         1.245947        -0.006544
 H        -3.267249        -1.340880        -3.063345
 H        -1.510861        -0.969776        -3.186712
 H        -2.969695        -1.745517        -0.565513
 H        -0.521898        -2.247015         0.107437
 H        -0.012969        -1.402885        -1.315996
 H        -1.637065         1.604584         0.547529
 H        -0.065698         1.976684        -0.063919
