19
Iteration:  3281
 C        -4.005389         0.539634        -1.842498
 C        -2.589798         0.247460        -1.465744
 C        -1.734959        -0.521604        -2.423012
 C        -2.156451        -1.147100        -1.098575
 C        -1.268634        -1.223470         0.116538
 C        -0.207790        -0.174027         0.313543
 O         0.749646        -0.476694         0.989363
 C        -0.515248         1.207360        -0.282898
 O        -2.010054         1.252876        -0.548963
 H        -4.255488         0.736279        -2.856637
 H        -4.586335        -0.353427        -1.579250
 H        -4.345006         1.228399        -1.107680
 H        -2.363164        -0.845265        -3.222974
 H        -0.699661        -0.331569        -2.655865
 H        -2.918393        -1.911423        -1.293176
 H        -1.894970        -1.396076         0.981958
 H        -0.640981        -2.041132         0.002785
 H        -0.264396         2.067302         0.317036
 H         0.055722         1.318408        -1.257104
