19
Iteration:  2530charge 0 multiplicity 1
 C        -3.828445         0.875958        -2.044086
 C        -2.574636         0.167573        -1.425340
 C        -1.691002        -0.909785        -2.054991
 C        -2.414437        -1.122157        -0.736404
 C        -1.167019        -1.449389         0.164744
 C        -0.254023        -0.173114         0.296024
 O         0.927097        -0.152240         0.334032
 C        -1.116462         1.148252         0.278805
 O        -1.750307         1.214479        -0.939603
 H        -3.632731         1.879756        -2.516350
 H        -4.068673         0.375232        -2.993160
 H        -4.637047         0.766508        -1.292995
 H        -1.830075        -1.431503        -2.965994
 H        -0.675653        -0.596366        -1.766548
 H        -3.298493        -1.777784        -0.905018
 H        -1.388168        -1.583489         1.318405
 H        -0.565407        -2.270133        -0.250583
 H        -1.725932         1.300099         1.178457
 H        -0.264883         1.926619         0.286646
