19
Iteration:  3094charge 0 multiplicity 1
 C        -3.819789         0.802405        -1.683927
 C        -2.341065         0.215333        -1.509765
 C        -1.790338        -0.964825        -2.382069
 C        -2.272933        -1.156714        -0.979310
 C        -1.335982        -1.364035         0.234493
 C        -0.413291        -0.154173         0.472768
 O         0.820347         0.005270         0.344548
 C        -1.212459         1.117099         0.346048
 O        -1.415416         1.135300        -1.032840
 H        -3.731453         1.868340        -1.999759
 H        -4.558919         0.379553        -2.306183
 H        -4.176936         0.621658        -0.639443
 H        -2.491510        -1.351468        -3.164195
 H        -0.718447        -1.041496        -2.512128
 H        -3.137424        -1.973672        -0.955428
 H        -1.922822        -1.457263         1.165367
 H        -0.671034        -2.190036         0.076461
 H        -2.157066         1.096475         0.852149
 H        -0.476562         1.896921         0.656847
