19
Iteration:  4018charge 0 multiplicity 1
 C        -3.987414         0.666701        -1.615011
 C        -2.550385         0.294324        -1.521857
 C        -1.986697        -0.619313        -2.577201
 C        -2.187966        -1.128693        -1.128339
 C        -1.144348        -1.389533         0.006964
 C        -0.297405        -0.196235         0.487102
 O         0.775279        -0.407247         0.999975
 C        -0.854237         1.213137         0.234763
 O        -1.532725         1.240241        -1.119358
 H        -4.721394        -0.162760        -1.659409
 H        -4.364312         1.297843        -0.770519
 H        -4.266078         1.399244        -2.522111
 H        -2.676983        -0.974259        -3.390489
 H        -0.952135        -0.446352        -2.805938
 H        -3.028519        -1.946376        -1.162369
 H        -1.626677        -1.801907         0.943010
 H        -0.321217        -2.145794        -0.245574
 H        -1.536644         1.360727         1.036255
 H        -0.084709         2.036292         0.010799
