19
Iteration:   250
 C        -4.016416         0.635743        -1.391053
 C        -2.541448         0.099069        -1.483502
 C        -2.357266        -1.154867        -2.264349
 C        -2.096450        -1.157790        -0.778243
 C        -0.616606        -1.180599        -0.399582
 C        -0.237746         0.005126         0.404556
 O         0.379026        -0.046405         1.425395
 C        -0.754686         1.292533        -0.279942
 O        -1.516048         1.115373        -1.461591
 H        -4.769882        -0.112729        -1.062874
 H        -4.140266         1.521586        -0.749967
 H        -4.322422         0.943394        -2.434207
 H        -3.307151        -1.622545        -2.590713
 H        -1.462791        -1.310201        -2.793034
 H        -2.782717        -1.575173        -0.130169
 H        -0.383174        -2.119900         0.069051
 H         0.098065        -0.984377        -1.262397
 H        -1.342135         1.887716         0.485946
 H         0.237469         1.832016        -0.482574
