19
Iteration:  3217
 C        -3.874626         0.699388        -2.002949
 C        -2.548261         0.219390        -1.393104
 C        -1.544935        -0.638432        -2.243268
 C        -2.152001        -1.155379        -1.011277
 C        -1.353753        -1.391492         0.321010
 C        -0.338049        -0.191382         0.355253
 O         0.859826        -0.379849         0.467169
 C        -0.743549         1.215933        -0.058174
 O        -2.081111         1.267605        -0.626427
 H        -3.770867         1.560131        -2.643233
 H        -4.578435        -0.115174        -2.361913
 H        -4.349429         1.030778        -1.079498
 H        -1.864365        -1.056547        -3.164879
 H        -0.451200        -0.576231        -2.205763
 H        -2.959664        -1.858592        -0.991897
 H        -2.007209        -1.280130         1.216409
 H        -0.843187        -2.324771         0.345521
 H        -0.808826         1.833471         0.821907
 H         0.015918         1.515919        -0.836060
