19
Iteration:  1691charge 0 multiplicity 1
 C        -3.923058         0.762593        -1.454221
 C        -2.526346         0.218299        -1.581629
 C        -1.938240        -0.832643        -2.459725
 C        -2.222554        -1.181494        -0.977521
 C        -1.093223        -1.480220         0.047519
 C        -0.294438        -0.201085         0.422675
 O         0.755842        -0.201649         1.043283
 C        -0.937041         1.191582        -0.003301
 O        -1.594386         1.310026        -1.308248
 H        -4.362191         1.397503        -2.237935
 H        -4.725750         0.029231        -1.380844
 H        -3.865760         1.417005        -0.647266
 H        -2.363620        -1.335664        -3.289629
 H        -0.894044        -0.581756        -2.638531
 H        -3.231025        -1.638402        -0.789634
 H        -1.487422        -2.033331         0.958001
 H        -0.344928        -2.187457        -0.372126
 H        -1.713524         1.509826         0.855487
 H        -0.179562         1.998238         0.007520
