19
Iteration:  2519
 C        -3.815157         0.843234        -2.093945
 C        -2.575846         0.196812        -1.413664
 C        -1.738122        -0.939756        -2.146730
 C        -2.362387        -1.167057        -0.749096
 C        -1.202352        -1.404545         0.215382
 C        -0.305327        -0.160150         0.371000
 O         0.952144        -0.099386         0.323606
 C        -1.025432         1.070180         0.316049
 O        -1.778888         1.261907        -0.928950
 H        -3.327654         1.856502        -2.151603
 H        -4.184403         0.378843        -3.011119
 H        -4.713466         1.137919        -1.502757
 H        -2.209853        -1.501259        -2.935479
 H        -0.630900        -0.865837        -2.290539
 H        -3.154401        -1.949481        -0.639291
 H        -1.413289        -1.876407         1.269109
 H        -0.596724        -2.168052        -0.302778
 H        -1.729031         1.195503         1.135807
 H        -0.326254         1.964569         0.276656
