19
Iteration:  3499charge 0 multiplicity 1
 C        -3.805940         0.834480        -0.942240
 C        -2.475317         0.214387        -1.470587
 C        -2.254945        -0.856261        -2.507823
 C        -2.002252        -1.189993        -0.967756
 C        -0.548776        -1.261886        -0.573438
 C        -0.368565        -0.129042         0.324887
 O        -0.093615        -0.349223         1.516608
 C        -0.759331         1.303181        -0.189181
 O        -1.411413         1.105162        -1.479794
 H        -4.071199         1.744467        -1.469652
 H        -4.739673         0.193938        -1.185389
 H        -3.878313         1.001138         0.124924
 H        -3.073913        -1.282710        -3.091288
 H        -1.345317        -0.780624        -3.192430
 H        -2.695890        -1.852582        -0.530660
 H        -0.290285        -2.154109         0.046434
 H         0.066264        -1.426212        -1.540355
 H        -1.359337         1.796326         0.593562
 H         0.222285         1.712673        -0.267988
