19
Iteration:  2712
 C        -3.818313         0.988145        -1.485595
 C        -2.566071         0.180587        -1.569599
 C        -2.263567        -1.044916        -2.430998
 C        -2.162492        -1.238538        -0.908883
 C        -0.734361        -1.326845        -0.290298
 C        -0.331585        -0.152094         0.442447
 O         0.658563        -0.050126         1.221992
 C        -1.147825         1.104153         0.084957
 O        -1.482249         1.110145        -1.338238
 H        -3.687132         2.058871        -1.776906
 H        -4.653287         0.552852        -2.073941
 H        -4.102708         1.031050        -0.422997
 H        -3.097588        -1.486506        -3.031206
 H        -1.185866        -1.087423        -2.822603
 H        -2.993364        -1.778605        -0.395629
 H        -0.535609        -2.128289         0.377174
 H         0.051218        -1.359293        -1.148845
 H        -1.782248         1.278702         0.908145
 H        -0.352802         1.862744         0.299647
