19
Iteration:  3194
 C        -3.744376         0.610970        -2.018822
 C        -2.531565         0.183482        -1.402034
 C        -1.645360        -0.730612        -2.201873
 C        -2.307774        -1.182001        -0.922208
 C        -1.273330        -1.343618         0.246362
 C        -0.317586        -0.139776         0.237513
 O         0.869296        -0.485852         0.378834
 C        -0.902513         1.327686         0.165521
 O        -1.982941         1.414383        -0.691177
 H        -3.640643         1.631575        -2.357581
 H        -3.979225        -0.106238        -2.819845
 H        -4.610356         0.558771        -1.335455
 H        -1.981085        -1.053609        -3.145914
 H        -0.551510        -0.610651        -2.145298
 H        -3.066951        -2.009152        -0.801289
 H        -1.730580        -1.247703         1.259724
 H        -0.623067        -2.163158         0.284856
 H        -1.063547         1.481134         1.236206
 H        -0.085012         1.980705        -0.276979
