19
Iteration:  3237charge 0 multiplicity 1
 C        -3.936475         0.669446        -1.922097
 C        -2.516750         0.255669        -1.494445
 C        -1.528735        -0.512395        -2.280697
 C        -2.218399        -1.198756        -1.007054
 C        -1.415539        -1.261842         0.317148
 C        -0.239865        -0.261390         0.281379
 O         0.915859        -0.344827         0.660102
 C        -0.698811         1.044308        -0.248430
 O        -2.125433         1.232177        -0.501177
 H        -3.813615         1.123967        -2.896573
 H        -4.561942        -0.227204        -2.041334
 H        -4.419207         1.291808        -1.190417
 H        -1.776119        -0.861387        -3.242241
 H        -0.525232        -0.064954        -2.329442
 H        -2.890626        -2.082964        -1.334975
 H        -2.019702        -0.952801         1.187813
 H        -1.119520        -2.252835         0.418986
 H        -0.560685         1.791715         0.518341
 H        -0.123697         1.243869        -1.206954
