19
Iteration:  4061charge 0 multiplicity 1
 C        -3.982066         0.768589        -1.692978
 C        -2.515480         0.249513        -1.441892
 C        -1.856419        -0.666186        -2.431555
 C        -2.232017        -1.161891        -1.021693
 C        -1.009587        -1.491459        -0.046315
 C        -0.243885        -0.260075         0.221965
 O         0.598850        -0.356795         1.120722
 C        -0.714460         1.133916        -0.066709
 O        -1.792942         1.431731        -0.943934
 H        -4.481492        -0.090496        -2.146654
 H        -4.439622         0.994320        -0.733614
 H        -3.974161         1.712430        -2.377387
 H        -2.519458        -1.232511        -3.143378
 H        -0.848287        -0.486581        -2.703969
 H        -3.161577        -1.884067        -0.888896
 H        -1.440251        -1.798018         0.906716
 H        -0.424490        -2.283899        -0.535875
 H        -1.067317         1.403096         0.915101
 H         0.292693         1.635242        -0.203104
