19
Iteration:   436charge 0 multiplicity 1
 C        -3.886565         0.476351        -1.934025
 C        -2.441274         0.178540        -1.397616
 C        -1.703940        -0.966321        -2.217314
 C        -2.298250        -1.230826        -0.868485
 C        -1.260298        -1.262176         0.217502
 C        -0.262244        -0.062087         0.214324
 O         0.950710        -0.206772         0.481787
 C        -0.872531         1.352408         0.073031
 O        -2.011710         1.366092        -0.764235
 H        -3.930500         1.442700        -2.421352
 H        -4.119387        -0.368641        -2.615736
 H        -4.606226         0.483758        -1.032157
 H        -2.122410        -1.206026        -3.219659
 H        -0.567329        -0.974533        -2.179088
 H        -3.161229        -1.874781        -0.927845
 H        -1.792176        -1.321579         1.149008
 H        -0.603999        -2.227876         0.063653
 H        -1.198499         1.647785         1.088443
 H        -0.034912         2.060207        -0.278310
