19
Iteration:  4142
 C        -3.990577         0.619785        -1.707053
 C        -2.604401         0.266458        -1.413882
 C        -1.809731        -0.449005        -2.461483
 C        -2.136281        -1.159947        -1.168809
 C        -1.187039        -1.397059         0.065618
 C        -0.168458        -0.298801         0.289628
 O         0.593977        -0.329218         1.257161
 C        -0.488297         1.087176        -0.443274
 O        -1.921431         1.289233        -0.671199
 H        -4.627024        -0.152177        -2.205456
 H        -4.679486         1.028898        -0.866215
 H        -3.969948         1.436566        -2.416104
 H        -2.352225        -0.604148        -3.390376
 H        -0.798076        -0.061336        -2.624745
 H        -2.830672        -1.906652        -1.346141
 H        -1.840651        -1.449596         0.952156
 H        -0.820611        -2.468669         0.026369
 H        -0.134832         1.953022         0.123268
 H         0.091111         0.871477        -1.368045
