19
Iteration:  4054charge 0 multiplicity 1
 C        -4.009411         0.739450        -1.711056
 C        -2.600894         0.301221        -1.458903
 C        -1.906231        -0.664951        -2.435878
 C        -2.193094        -1.083451        -1.060839
 C        -1.044343        -1.500870        -0.050692
 C        -0.240717        -0.267434         0.330634
 O         0.665270        -0.356405         1.110339
 C        -0.700252         1.097008        -0.006857
 O        -1.772864         1.373605        -0.997996
 H        -4.547904        -0.144659        -2.129783
 H        -4.351013         1.065174        -0.637597
 H        -3.949016         1.559025        -2.433241
 H        -2.448497        -1.106382        -3.269419
 H        -0.843455        -0.540700        -2.710283
 H        -2.945790        -1.773631        -1.007498
 H        -1.430621        -1.758627         0.959788
 H        -0.363458        -2.344497        -0.439518
 H        -1.051205         1.564279         0.946275
 H         0.174476         1.787289        -0.186673
