19
Iteration:  1650charge 0 multiplicity 1
 C        -3.827820         0.866376        -1.623906
 C        -2.503740         0.186757        -1.487089
 C        -2.379451        -0.991648        -2.386021
 C        -2.218061        -1.136992        -0.855984
 C        -0.781331        -1.356272        -0.325062
 C        -0.254452        -0.061074         0.415344
 O         0.634374        -0.187398         1.236778
 C        -1.045984         1.200720         0.108501
 O        -1.402559         1.109527        -1.302460
 H        -3.669030         1.808527        -2.282659
 H        -4.558022         0.118595        -2.065515
 H        -4.316756         1.009219        -0.588635
 H        -3.253139        -1.161291        -2.965390
 H        -1.477291        -1.056413        -3.017047
 H        -2.985083        -1.692139        -0.258258
 H        -0.677084        -2.126074         0.467849
 H        -0.081901        -1.552977        -1.097629
 H        -1.931769         1.281747         0.684894
 H        -0.429681         2.151751         0.187898
