19
Iteration:  4568charge 0 multiplicity 1
 C        -3.896837         0.808636        -1.782630
 C        -2.530963         0.263573        -1.373393
 C        -1.687264        -0.618785        -2.328400
 C        -2.269404        -1.222964        -1.019029
 C        -1.208403        -1.524429        -0.046381
 C        -0.301388        -0.259658         0.329307
 O         0.732731        -0.385777         0.985708
 C        -0.717988         1.170894        -0.203378
 O        -1.940184         1.398791        -0.812248
 H        -4.287790         0.092247        -2.477409
 H        -4.602514         0.823301        -0.881431
 H        -3.728653         1.770390        -2.183117
 H        -2.096740        -1.023531        -3.244817
 H        -0.658341        -0.492686        -2.232895
 H        -3.090039        -1.988730        -0.892034
 H        -1.566138        -1.681145         1.021936
 H        -0.473932        -2.392041        -0.366194
 H        -0.804692         1.899294         0.579309
 H         0.152072         1.410775        -0.840213
