19
Iteration:  3696
 C        -3.670435         0.948167        -1.311149
 C        -2.451753         0.207941        -1.440140
 C        -2.350343        -0.903078        -2.522852
 C        -2.042411        -1.143280        -1.002807
 C        -0.543829        -1.281543        -0.629020
 C        -0.333958        -0.234184         0.367216
 O         0.208923        -0.296934         1.469885
 C        -1.031119         1.072851         0.078629
 O        -1.474871         1.190978        -1.298610
 H        -4.583665         0.529022        -0.874332
 H        -3.335511         1.805878        -0.617826
 H        -4.053022         1.318179        -2.233769
 H        -3.308576        -1.096244        -3.166848
 H        -1.455648        -0.971154        -3.198380
 H        -2.724321        -1.725816        -0.289132
 H        -0.486231        -2.331544        -0.353789
 H         0.064307        -0.914091        -1.452452
 H        -2.006369         1.048570         0.761243
 H        -0.584174         2.052430         0.374688
