19
Iteration:  3756
 C        -3.882204         0.808438        -1.380242
 C        -2.458592         0.204525        -1.514745
 C        -2.174439        -0.743179        -2.640325
 C        -2.212931        -1.161619        -0.991856
 C        -0.901467        -1.329100        -0.408241
 C        -0.300906        -0.196391         0.489020
 O         0.527188        -0.334888         1.397699
 C        -0.972047         1.215230         0.085138
 O        -1.434962         1.179254        -1.285990
 H        -4.522977         0.186298        -2.004448
 H        -4.209829         0.664206        -0.387258
 H        -3.862054         1.910700        -1.611713
 H        -2.970959        -0.981569        -3.315689
 H        -1.207232        -0.698592        -3.040819
 H        -3.085299        -1.734145        -0.690840
 H        -0.694302        -2.354455        -0.012674
 H        -0.044910        -1.361805        -1.175995
 H        -1.779647         1.458745         0.729967
 H        -0.076769         1.853042         0.226207
