19
Iteration:  2176charge 0 multiplicity 1
 C        -3.674373         0.763142        -0.886025
 C        -2.397290         0.152488        -1.410361
 C        -2.444963        -1.074313        -2.391960
 C        -1.915806        -1.212181        -0.931496
 C        -0.448448        -1.284853        -0.600729
 C        -0.537824        -0.014401         0.306380
 O        -0.337593        -0.179864         1.487095
 C        -0.604210         1.300054        -0.388992
 O        -1.390264         1.148173        -1.523553
 H        -3.736001         1.823060        -1.315370
 H        -4.580741         0.203442        -1.171472
 H        -3.699351         0.867297         0.260279
 H        -3.443847        -1.349335        -2.575514
 H        -1.632791        -1.109011        -3.118844
 H        -2.533550        -1.772616        -0.181914
 H        -0.173155        -2.023777         0.135907
 H         0.359698        -1.228866        -1.298793
 H        -0.879239         2.111395         0.373899
 H         0.400210         1.454932        -0.731478
