19
Iteration:   899charge 0 multiplicity 1
 C        -3.732617         0.626037        -0.673483
 C        -2.442591         0.170431        -1.374230
 C        -2.337889        -0.899290        -2.456514
 C        -1.914203        -1.149726        -0.943905
 C        -0.477295        -1.274827        -0.623617
 C        -0.455289        -0.028721         0.312711
 O        -0.477450        -0.125549         1.534695
 C        -0.570270         1.276290        -0.484163
 O        -1.340707         1.062377        -1.602980
 H        -4.401505         1.218390        -1.314735
 H        -4.205393        -0.296689        -0.319817
 H        -3.527052         1.181805         0.206234
 H        -3.171661        -1.497824        -2.907344
 H        -1.396080        -0.746361        -3.060928
 H        -2.436058        -1.887042        -0.304206
 H        -0.259243        -2.209510        -0.026483
 H         0.310540        -1.118630        -1.475156
 H        -0.998889         2.087477         0.128372
 H         0.494624         1.669130        -0.758788
