19
Iteration:  3347
 C        -3.978859         0.703759        -1.536075
 C        -2.595193         0.222240        -1.407339
 C        -1.952152        -0.740395        -2.533719
 C        -2.186450        -1.182184        -1.032399
 C        -0.981473        -1.384341        -0.165055
 C        -0.257905        -0.161568         0.336948
 O         0.582656        -0.346449         1.237180
 C        -0.703374         1.225632        -0.117782
 O        -1.751830         1.308579        -1.046627
 H        -3.918384         1.731205        -1.733846
 H        -4.629007         0.275728        -2.340027
 H        -4.491137         0.637471        -0.620970
 H        -2.479531        -1.209626        -3.387103
 H        -0.941399        -0.459922        -2.570704
 H        -2.838102        -1.969708        -0.744193
 H        -1.243377        -1.989093         0.687874
 H        -0.263755        -1.953169        -0.667312
 H        -0.562388         1.840296         0.720303
 H         0.116999         1.537404        -0.756657
