19
Iteration:  4720charge 0 multiplicity 1
 C        -3.984355         0.705395        -1.721654
 C        -2.487800         0.297249        -1.447365
 C        -1.970252        -0.658724        -2.506084
 C        -2.275766        -1.152004        -1.089426
 C        -1.080958        -1.428095        -0.138433
 C        -0.204619        -0.230089         0.361106
 O         0.573238        -0.418129         1.277136
 C        -0.476191         1.189914        -0.228215
 O        -1.843916         1.358391        -0.793596
 H        -4.216378        -0.077398        -2.444175
 H        -4.642623         0.560046        -0.762878
 H        -4.170780         1.586492        -2.279453
 H        -2.597375        -0.765685        -3.307646
 H        -0.898334        -0.738025        -2.750910
 H        -3.164182        -1.653296        -0.637928
 H        -1.363907        -1.795497         0.814794
 H        -0.505044        -2.244383        -0.472541
 H        -0.344064         1.891399         0.562098
 H         0.172953         1.541416        -1.035308
