19
Iteration:  1690charge 0 multiplicity 1
 C        -3.924211         0.764881        -1.460360
 C        -2.514985         0.227730        -1.576280
 C        -1.944274        -0.843429        -2.457268
 C        -2.228966        -1.180756        -0.974245
 C        -1.087636        -1.485125         0.043178
 C        -0.291107        -0.206595         0.419029
 O         0.751727        -0.192215         1.048389
 C        -0.941008         1.193572        -0.005117
 O        -1.591910         1.313244        -1.308675
 H        -4.363824         1.403349        -2.212715
 H        -4.707955         0.023593        -1.398197
 H        -3.848004         1.404507        -0.649481
 H        -2.410929        -1.340375        -3.294251
 H        -0.904881        -0.582302        -2.644696
 H        -3.225805        -1.644722        -0.780650
 H        -1.478714        -2.054989         0.934543
 H        -0.337838        -2.212166        -0.406175
 H        -1.703320         1.478384         0.876373
 H        -0.192871         1.979581         0.023940
