19
Iteration:  3889
 C        -3.869130         0.948616        -1.631226
 C        -2.511896         0.328942        -1.550666
 C        -2.004079        -0.833417        -2.412031
 C        -2.252163        -1.048054        -0.989041
 C        -0.933338        -1.508639        -0.225479
 C        -0.291440        -0.237167         0.324035
 O         0.714224        -0.278359         1.048021
 C        -1.098123         1.043885         0.235058
 O        -1.552709         1.249892        -1.090056
 H        -4.446137         0.064764        -1.865137
 H        -4.345082         1.400160        -0.759276
 H        -3.991485         1.588131        -2.487146
 H        -2.570875        -1.256083        -3.195332
 H        -0.892765        -0.761909        -2.607133
 H        -2.966799        -1.796697        -0.690350
 H        -1.102776        -2.077404         0.708346
 H        -0.188031        -1.893864        -0.994408
 H        -1.963354         1.026255         1.015424
 H        -0.400354         1.866638         0.698765
