19
Iteration:  1444charge 0 multiplicity 1
 C        -3.650663         0.811375        -0.869885
 C        -2.424686         0.146972        -1.423974
 C        -2.504850        -1.080800        -2.348698
 C        -1.999148        -1.225851        -0.949354
 C        -0.461699        -1.128315        -0.660373
 C        -0.403769        -0.021137         0.403734
 O        -0.408113        -0.227447         1.595598
 C        -0.493709         1.248199        -0.386277
 O        -1.349239         1.075180        -1.628228
 H        -3.511600         1.865703        -0.879496
 H        -4.582590         0.505821        -1.312688
 H        -3.655695         0.489652         0.171947
 H        -3.531329        -1.289432        -2.562947
 H        -1.726807        -1.217495        -3.062185
 H        -2.685675        -1.694568        -0.189872
 H        -0.039321        -2.165472        -0.415888
 H        -0.093477        -0.760987        -1.672093
 H        -1.071435         2.028894         0.181694
 H         0.441780         1.692400        -0.757065
