19
Iteration:  4788charge 0 multiplicity 1
 C        -4.015854         0.751621        -1.730816
 C        -2.505242         0.284142        -1.377754
 C        -1.806857        -0.481790        -2.441545
 C        -2.193488        -1.179059        -1.105734
 C        -1.182851        -1.539624        -0.006057
 C        -0.247197        -0.347162         0.324107
 O         0.646373        -0.260244         1.191997
 C        -0.574238         1.013295        -0.312868
 O        -1.884040         1.366241        -0.774493
 H        -4.570257        -0.199978        -1.961815
 H        -4.538987         1.247568        -0.896657
 H        -4.025277         1.406637        -2.690136
 H        -2.381820        -0.856778        -3.333466
 H        -0.826185        -0.197483        -2.665869
 H        -3.020996        -1.864654        -1.055080
 H        -1.736373        -1.823103         0.853957
 H        -0.465639        -2.304446        -0.246041
 H        -0.350823         1.787960         0.398759
 H         0.208246         1.126630        -1.092207
