19
Iteration:  1624
 C        -3.874126         1.079248        -1.484261
 C        -2.624282         0.100565        -1.516638
 C        -2.345729        -1.120256        -2.383187
 C        -2.150790        -1.193177        -0.903790
 C        -0.738693        -1.146825        -0.451671
 C        -0.336264        -0.135882         0.576590
 O         0.603576        -0.170791         1.365459
 C        -1.003667         1.172357         0.019586
 O        -1.390918         0.962100        -1.395222
 H        -3.505805         1.925135        -2.075709
 H        -4.795115         0.638406        -1.868935
 H        -4.034682         1.285237        -0.467462
 H        -3.140267        -1.653412        -2.982225
 H        -1.449375        -1.100799        -2.982377
 H        -2.795085        -1.782352        -0.259382
 H        -0.160440        -2.079579        -0.246236
 H        -0.142635        -0.525043        -1.212941
 H        -1.982521         1.599833         0.514650
 H        -0.322469         1.976164        -0.053266
