19
Iteration:  1669charge 0 multiplicity 1
 C        -3.845833         0.770894        -1.511635
 C        -2.458196         0.249936        -1.489586
 C        -2.160724        -0.926856        -2.388613
 C        -2.210772        -1.119351        -0.899089
 C        -0.955742        -1.462677        -0.199064
 C        -0.274188        -0.177364         0.313703
 O         0.618266        -0.079269         1.129788
 C        -0.956024         1.072223         0.043326
 O        -1.473701         1.294434        -1.255985
 H        -3.971348         1.483058        -2.346111
 H        -4.525796         0.002393        -1.924905
 H        -4.243553         1.258034        -0.673076
 H        -3.004014        -1.276260        -2.945302
 H        -1.261789        -1.232612        -2.895331
 H        -3.170355        -1.571937        -0.526757
 H        -1.161221        -1.989443         0.780130
 H        -0.241222        -2.129938        -0.722868
 H        -1.878472         1.257505         0.723064
 H        -0.316842         1.916165         0.280086
