19
Iteration:  4249
 C        -4.029140         0.703354        -1.825364
 C        -2.526804         0.302586        -1.483020
 C        -1.811792        -0.698469        -2.384608
 C        -2.306193        -1.139825        -1.008380
 C        -1.099190        -1.429699        -0.054480
 C        -0.237593        -0.309996         0.406208
 O         0.770245        -0.379562         1.074624
 C        -0.714632         1.116053        -0.054624
 O        -1.851785         1.454821        -0.895903
 H        -4.388713        -0.028132        -2.609410
 H        -4.492024         0.559637        -0.823037
 H        -4.109127         1.715773        -2.192524
 H        -2.320616        -1.059423        -3.352763
 H        -0.747036        -0.596459        -2.565410
 H        -3.186605        -1.646627        -0.778793
 H        -1.540019        -1.734726         0.891680
 H        -0.436030        -2.246140        -0.498781
 H        -0.743422         1.804366         0.770269
 H         0.155820         1.534580        -0.675581
