19
Iteration:  2310charge 0 multiplicity 1
 C        -3.868460         0.753105        -1.299255
 C        -2.526589         0.185851        -1.482081
 C        -2.422962        -0.994257        -2.473459
 C        -2.100176        -1.166381        -0.934568
 C        -0.660686        -1.228819        -0.459415
 C        -0.284751        -0.066328         0.505177
 O         0.351898        -0.172840         1.577810
 C        -0.861980         1.274718        -0.181644
 O        -1.387663         1.050652        -1.515597
 H        -3.947425         1.842440        -1.461372
 H        -4.575505         0.073881        -1.890269
 H        -4.222115         0.569271        -0.235556
 H        -3.359843        -1.401554        -2.860933
 H        -1.598192        -0.950417        -3.254361
 H        -2.834002        -1.709149        -0.382595
 H        -0.609506        -2.088976         0.225566
 H         0.132261        -1.146707        -1.173452
 H        -1.600933         1.917973         0.402560
 H         0.084006         1.781584        -0.296207
