19
Iteration:   356charge 0 multiplicity 1
 C        -3.955928         0.673739        -1.521509
 C        -2.468450         0.127220        -1.458539
 C        -1.920118        -0.960485        -2.373062
 C        -2.140941        -1.198405        -0.869107
 C        -1.033935        -1.345973         0.098661
 C        -0.342751        -0.062096         0.307027
 O         0.798037        -0.004674         0.795432
 C        -1.101503         1.222808         0.052225
 O        -1.591809         1.160417        -1.272904
 H        -3.921118         1.737995        -1.111713
 H        -4.358721         0.759700        -2.534083
 H        -4.630629         0.091035        -0.936564
 H        -2.481584        -1.644208        -3.010673
 H        -0.968258        -0.746432        -2.713457
 H        -3.053867        -1.829359        -0.768770
 H        -1.543151        -1.565362         1.047289
 H        -0.232186        -2.136309         0.026138
 H        -1.919577         1.306301         0.806363
 H        -0.427117         2.090989         0.151225
