19
Iteration:    50charge 0 multiplicity 1
 C        -3.955408         0.517818        -1.210091
 C        -2.489701         0.107605        -1.296842
 C        -2.453606        -1.113035        -2.250643
 C        -1.999158        -1.171726        -0.773028
 C        -0.472003        -1.221103        -0.449356
 C        -0.271770         0.071838         0.289499
 O        -0.081307        -0.070880         1.503856
 C        -0.420825         1.324790        -0.535048
 O        -1.560767         1.189299        -1.449930
 H        -4.539124         0.022462        -0.390165
 H        -4.084986         1.626869        -1.335602
 H        -4.501011         0.280592        -2.133733
 H        -3.356226        -1.590325        -2.720106
 H        -1.663673        -1.132223        -3.000921
 H        -2.663859        -1.526158         0.132536
 H        -0.077823        -2.141605         0.063900
 H        -0.016048        -1.181869        -1.466961
 H        -0.463813         2.301901         0.055767
 H         0.557527         1.289571        -1.188285
