19
Iteration:  1622
 C        -3.856185         1.082402        -1.471388
 C        -2.643498         0.087990        -1.520478
 C        -2.349132        -1.131739        -2.389545
 C        -2.141355        -1.182603        -0.890630
 C        -0.726189        -1.154838        -0.453638
 C        -0.343232        -0.128314         0.566693
 O         0.582446        -0.164313         1.372064
 C        -0.993082         1.151342         0.020902
 O        -1.396138         0.962730        -1.402657
 H        -3.565440         1.908351        -2.039842
 H        -4.760244         0.679867        -1.850639
 H        -3.977559         1.312008        -0.439432
 H        -3.146248        -1.605330        -3.025080
 H        -1.423421        -1.044135        -2.993072
 H        -2.759180        -1.772608        -0.268308
 H        -0.139810        -2.040134        -0.271783
 H        -0.145321        -0.506137        -1.225767
 H        -1.940680         1.632792         0.483771
 H        -0.301019         1.984885        -0.053573
