19
Iteration:  4182
 C        -3.924704         0.690059        -1.581640
 C        -2.486258         0.232706        -1.485728
 C        -1.601916        -0.604317        -2.481556
 C        -2.218302        -1.157462        -1.218303
 C        -1.334032        -1.425283        -0.013353
 C        -0.241645        -0.175630         0.290043
 O         0.576860        -0.310690         1.188140
 C        -0.528885         1.121812        -0.459527
 O        -1.975496         1.250278        -0.582863
 H        -4.531586        -0.183348        -1.677024
 H        -3.990139         0.862713        -0.543059
 H        -4.198911         1.583460        -2.163818
 H        -2.062733        -0.832690        -3.396123
 H        -0.519739        -0.337212        -2.486096
 H        -3.154962        -1.746404        -1.341176
 H        -1.883913        -1.342786         0.898706
 H        -0.686519        -2.314170        -0.009408
 H        -0.228202         1.975102         0.127243
 H        -0.160213         1.148746        -1.510744
