19
Iteration:  1365charge 0 multiplicity 1
 C        -3.824076         0.733063        -1.201700
 C        -2.466307         0.242218        -1.569258
 C        -2.278837        -1.011090        -2.519473
 C        -2.197594        -1.165100        -1.028384
 C        -0.852557        -1.240401        -0.336183
 C        -0.411502        -0.094263         0.495706
 O         0.395521        -0.169360         1.392184
 C        -0.769765         1.213978        -0.071786
 O        -1.384304         1.145482        -1.409413
 H        -4.391698         1.338358        -1.945594
 H        -4.423690        -0.178328        -1.134542
 H        -3.947476         1.238861        -0.283350
 H        -3.180836        -1.432764        -3.019690
 H        -1.382476        -1.147075        -3.126810
 H        -2.973467        -1.637656        -0.483679
 H        -0.891068        -2.241245         0.152082
 H        -0.044465        -1.351235        -1.079818
 H        -1.357048         1.939566         0.518002
 H         0.209322         1.746498        -0.384331
