19
Iteration:  3856charge 0 multiplicity 1
 C        -3.919865         0.719286        -1.494082
 C        -2.507325         0.323623        -1.453128
 C        -2.028103        -0.667764        -2.561860
 C        -2.150257        -1.166378        -1.130724
 C        -1.046362        -1.412839        -0.121096
 C        -0.332661        -0.224193         0.431840
 O         0.635391        -0.392962         1.125146
 C        -0.890499         1.163580         0.117766
 O        -1.552241         1.351375        -1.180396
 H        -4.422744        -0.242846        -1.479788
 H        -4.207820         1.351760        -0.657121
 H        -4.154028         1.118539        -2.470200
 H        -2.679186        -0.921298        -3.368872
 H        -0.976524        -0.461705        -2.869189
 H        -2.995449        -1.878940        -0.981570
 H        -1.358792        -2.077822         0.718278
 H        -0.249271        -2.191763        -0.448937
 H        -1.614381         1.271589         1.007549
 H         0.020433         1.910435         0.129774
