19
Iteration:  3185
 C        -3.797979         0.593044        -2.082571
 C        -2.480960         0.240831        -1.331545
 C        -1.663446        -0.746686        -2.207030
 C        -2.305145        -1.187998        -0.855869
 C        -1.278759        -1.315192         0.245505
 C        -0.265861        -0.167059         0.190755
 O         0.882233        -0.442589         0.359648
 C        -0.868907         1.275071         0.236673
 O        -1.979533         1.392352        -0.728915
 H        -3.745255         1.625195        -2.395761
 H        -3.966751        -0.014679        -3.047834
 H        -4.588196         0.382626        -1.364184
 H        -1.988651        -1.055495        -3.167686
 H        -0.573219        -0.783862        -2.069099
 H        -3.229679        -1.678317        -0.881637
 H        -1.836587        -1.205796         1.229132
 H        -0.859105        -2.299741         0.140586
 H        -1.386049         1.447004         1.172748
 H        -0.150144         2.114305         0.095932
