19
Iteration:   323
 C        -3.834124         0.565906        -1.209931
 C        -2.374322         0.115846        -1.628535
 C        -2.137329        -1.017634        -2.590885
 C        -2.179532        -1.207062        -1.040220
 C        -1.076576        -1.289001         0.060513
 C        -0.332019         0.095357         0.480512
 O         0.778458         0.019651         0.969338
 C        -1.189111         1.338750         0.031878
 O        -1.378253         1.043740        -1.391445
 H        -3.799339         0.986462        -0.150023
 H        -4.412657         1.282466        -1.811539
 H        -4.487229        -0.252837        -1.046448
 H        -2.975731        -1.502299        -3.079704
 H        -1.189333        -1.038746        -3.030784
 H        -3.132374        -1.722182        -0.658926
 H        -1.596170        -1.623320         0.971430
 H        -0.193588        -2.000375        -0.116175
 H        -2.169659         1.345265         0.528568
 H        -0.759922         2.323781         0.047798
