19
Iteration:   300charge 0 multiplicity 1
 C        -3.893111         0.684076        -1.217891
 C        -2.481645         0.099885        -1.477179
 C        -2.159727        -0.941409        -2.474088
 C        -2.135245        -1.277933        -0.989299
 C        -0.909545        -1.349612        -0.029991
 C        -0.376617        -0.050142         0.385242
 O         0.607055         0.216931         1.093012
 C        -1.023886         1.204910        -0.085876
 O        -1.382817         0.993000        -1.476596
 H        -4.194045         0.609401        -0.140817
 H        -3.991495         1.741837        -1.522445
 H        -4.671780         0.164864        -1.732795
 H        -2.968598        -1.390361        -3.016237
 H        -1.285982        -0.555425        -3.046560
 H        -2.984146        -2.039235        -0.741489
 H        -1.349242        -1.806199         0.889795
 H         0.004959        -1.930291        -0.217472
 H        -1.925636         1.512937         0.492489
 H        -0.263690         1.933749        -0.012171
