19
Iteration:  1845
 C        -3.736121         0.745176        -2.057274
 C        -2.480371         0.167811        -1.489749
 C        -1.869446        -1.018851        -2.302151
 C        -2.393819        -1.162672        -0.850650
 C        -1.258708        -1.242547         0.264368
 C        -0.141566        -0.107617         0.307931
 O         1.018520        -0.341431         0.410560
 C        -0.993175         1.245465         0.362585
 O        -1.855132         1.331116        -0.838858
 H        -3.570190         1.578898        -2.800979
 H        -4.362922        -0.045271        -2.628896
 H        -4.407811         1.142886        -1.230210
 H        -2.603237        -1.407476        -3.045922
 H        -0.796959        -1.116583        -2.464201
 H        -3.373903        -1.676105        -0.724018
 H        -1.746631        -1.118032         1.315070
 H        -0.895913        -2.267288         0.226679
 H        -1.663782         1.281056         1.208143
 H        -0.512306         2.302929         0.327124
