19
Iteration:  2066
 C        -3.846081         0.853574        -1.234261
 C        -2.534456         0.191633        -1.443096
 C        -2.158295        -0.850360        -2.454132
 C        -2.124266        -1.129379        -0.984245
 C        -0.817193        -1.359445        -0.302787
 C        -0.251236        -0.118940         0.330134
 O         0.353086        -0.098091         1.413911
 C        -0.875777         1.068824        -0.181668
 O        -1.469060         1.060987        -1.449791
 H        -4.312601         1.205472        -2.223687
 H        -4.675018         0.180722        -0.915293
 H        -3.849928         1.684731        -0.456871
 H        -2.830121        -1.407763        -3.130098
 H        -1.222887        -0.760413        -2.975025
 H        -2.955677        -1.732175        -0.578915
 H        -0.936732        -1.825579         0.645888
 H        -0.034514        -1.788451        -0.897333
 H        -1.678350         1.315329         0.591902
 H        -0.171930         1.881130        -0.087774
