19
Iteration:  2926
 C        -3.629888         0.867864        -0.764795
 C        -2.426824         0.130388        -1.498878
 C        -2.476207        -0.942933        -2.551131
 C        -1.889427        -1.293411        -1.090049
 C        -0.516057        -1.287600        -0.519035
 C        -0.491552        -0.001137         0.409794
 O        -0.191899        -0.085202         1.596151
 C        -0.841597         1.208689        -0.301424
 O        -1.264919         0.979043        -1.632519
 H        -3.754592         1.925964        -0.939636
 H        -4.610097         0.410208        -1.067149
 H        -3.517222         0.691671         0.314649
 H        -3.486531        -1.461808        -2.596563
 H        -1.756771        -0.634059        -3.302551
 H        -2.640142        -1.828846        -0.533929
 H        -0.318407        -2.176669         0.093264
 H         0.283837        -1.175712        -1.294220
 H        -1.499870         1.922023         0.151705
 H         0.041524         1.867116        -0.303297
