19
Iteration:   979charge 0 multiplicity 1
 C        -3.841371         0.936146        -1.275278
 C        -2.507226         0.157138        -1.401027
 C        -2.379794        -1.084795        -2.363525
 C        -2.077229        -1.194281        -0.917811
 C        -0.558420        -1.218723        -0.573417
 C        -0.249610        -0.058479         0.424671
 O         0.194874        -0.273672         1.569204
 C        -0.901009         1.315428        -0.164378
 O        -1.421927         1.025580        -1.530038
 H        -3.771285         1.594067        -2.087630
 H        -4.734860         0.389993        -1.425988
 H        -3.876951         1.502791        -0.346904
 H        -3.299082        -1.485146        -2.793835
 H        -1.510223        -0.955449        -3.021059
 H        -2.666281        -1.813161        -0.264789
 H        -0.197623        -2.119227        -0.046868
 H         0.068162        -1.121376        -1.417218
 H        -1.821547         1.646924         0.396233
 H        -0.198827         2.120830        -0.201927
