19
Iteration:  3138
 C        -3.862809         0.747624        -2.007350
 C        -2.514447         0.245137        -1.425676
 C        -1.654263        -0.807330        -2.161521
 C        -2.222557        -1.170780        -0.777241
 C        -1.241931        -1.413277         0.318319
 C        -0.342990        -0.188926         0.365261
 O         0.879484        -0.261155         0.209543
 C        -1.147909         1.104051         0.351575
 O        -1.674276         1.356084        -0.973839
 H        -3.594905         1.817036        -2.130189
 H        -3.837689         0.457009        -3.013386
 H        -4.734224         0.391460        -1.435957
 H        -2.367172        -1.054538        -2.980157
 H        -0.590054        -0.730501        -2.331338
 H        -3.225264        -1.846120        -0.749570
 H        -1.813132        -1.501320         1.265693
 H        -0.632868        -2.275464         0.113780
 H        -1.907416         1.011301         1.127780
 H        -0.539877         2.049518         0.545792
