19
Iteration:  2448charge 0 multiplicity 1
 C        -3.997859         0.766590        -1.628773
 C        -2.524446         0.174195        -1.495440
 C        -1.697205        -0.749700        -2.296687
 C        -2.190805        -1.112919        -0.879167
 C        -1.181788        -1.532885         0.192986
 C        -0.375833        -0.236572         0.368040
 O         0.817459        -0.148401         0.588998
 C        -1.146894         1.194576         0.178327
 O        -1.514746         1.236958        -1.213891
 H        -4.137202         1.179050        -2.582788
 H        -4.676460        -0.041287        -1.424522
 H        -4.314459         1.515894        -0.915131
 H        -2.081992        -1.259195        -3.134794
 H        -0.621096        -0.522641        -2.250172
 H        -3.065061        -1.718129        -0.920025
 H        -1.559710        -1.715613         1.176229
 H        -0.497448        -2.346403        -0.186951
 H        -1.993390         1.613887         0.787770
 H        -0.319170         1.871423         0.320230
