19
Iteration:  4650charge 0 multiplicity 1
 C        -3.962577         0.719418        -1.532493
 C        -2.541157         0.292898        -1.458189
 C        -1.749275        -0.572128        -2.527002
 C        -2.097761        -1.161594        -1.216829
 C        -1.295459        -1.329506         0.006422
 C        -0.224349        -0.212902         0.238066
 O         0.490405        -0.351845         1.229815
 C        -0.462709         1.080858        -0.421551
 O        -1.886660         1.176990        -0.640486
 H        -4.564730        -0.131640        -1.924875
 H        -4.194154         1.071730        -0.528618
 H        -4.188538         1.587448        -2.258450
 H        -2.264287        -0.922112        -3.547859
 H        -0.756391        -0.207683        -2.823887
 H        -2.829969        -1.959073        -1.363174
 H        -1.932233        -1.392545         0.941461
 H        -0.714077        -2.225736         0.265841
 H        -0.261011         2.014308         0.215693
 H         0.221426         1.184730        -1.283099
