19
Iteration:  3994charge 0 multiplicity 1
 C        -3.822444         0.792939        -1.463398
 C        -2.481335         0.292194        -1.437524
 C        -1.893709        -0.764672        -2.526846
 C        -2.211170        -1.136615        -1.109772
 C        -1.106407        -1.417430        -0.085978
 C        -0.348101        -0.210479         0.357155
 O         0.700258        -0.310786         0.933137
 C        -1.117269         1.095661         0.215775
 O        -1.468859         1.298569        -1.156277
 H        -4.567247        -0.026094        -1.547126
 H        -4.139723         1.320884        -0.590723
 H        -4.082123         1.557475        -2.305338
 H        -2.618809        -1.100263        -3.207161
 H        -0.806221        -0.701105        -2.882965
 H        -3.184306        -1.821605        -1.069130
 H        -1.457492        -1.524914         0.971124
 H        -0.463854        -2.273889        -0.252085
 H        -2.025509         1.093412         0.803033
 H        -0.390159         1.885389         0.410416
