19
Iteration:  3972
 C        -3.756677         0.946607        -1.455479
 C        -2.490665         0.290881        -1.642289
 C        -1.923746        -0.795619        -2.496609
 C        -2.195833        -1.209813        -1.032282
 C        -1.124617        -1.577029        -0.101694
 C        -0.383044        -0.197029         0.475380
 O         0.778518        -0.160259         0.885295
 C        -1.225563         1.032163         0.225277
 O        -1.465053         1.238561        -1.139211
 H        -4.674060         0.328236        -1.642449
 H        -3.791961         1.183476        -0.406214
 H        -3.895674         1.966367        -2.027694
 H        -2.483916        -1.153444        -3.312260
 H        -0.829506        -0.608987        -2.777981
 H        -3.286719        -1.319827        -0.641830
 H        -1.374487        -2.217075         0.751071
 H        -0.365776        -2.154490        -0.605903
 H        -2.180558         0.952013         0.637825
 H        -0.729003         1.919882         0.571211
