19
Iteration:  3423charge 0 multiplicity 1
 C        -3.879082         0.893100        -1.134702
 C        -2.515451         0.159149        -1.416851
 C        -2.153605        -0.828995        -2.527346
 C        -2.145673        -1.253763        -1.042062
 C        -0.699244        -1.319919        -0.436483
 C        -0.315345        -0.072770         0.353962
 O         0.283619        -0.272024         1.414898
 C        -0.954470         1.206966        -0.062644
 O        -1.382292         1.104332        -1.417977
 H        -3.702863         1.941111        -1.073678
 H        -4.604729         0.878558        -2.003096
 H        -4.416949         0.564628        -0.283377
 H        -2.944673        -1.364809        -3.101134
 H        -1.228118        -0.519298        -3.106229
 H        -2.909795        -1.927901        -0.747751
 H        -0.525022        -2.196430         0.196878
 H         0.018939        -1.412386        -1.302689
 H        -1.714526         1.336593         0.708951
 H        -0.252492         2.002192         0.117440
