19
Iteration:   538
 C        -3.855447         0.445691        -2.042326
 C        -2.543890         0.155452        -1.370060
 C        -1.539449        -0.608351        -2.184557
 C        -2.123744        -1.210034        -0.929889
 C        -1.349986        -1.216329         0.403014
 C        -0.274410        -0.145992         0.241412
 O         0.915931        -0.300109         0.416876
 C        -0.797297         1.218692        -0.235839
 O        -2.172714         1.296043        -0.446865
 H        -3.765863         0.530219        -3.175575
 H        -4.558543        -0.410612        -1.842096
 H        -4.297876         1.355399        -1.609636
 H        -1.901875        -0.971809        -3.101531
 H        -0.494072        -0.331911        -2.255360
 H        -2.920754        -1.991516        -1.051820
 H        -2.180651        -0.879422         1.114427
 H        -1.101616        -2.206445         0.585389
 H        -0.478027         1.925602         0.554444
 H        -0.199997         1.408955        -1.147946
