19
Iteration:  4437
 C        -3.772063         0.686254        -2.151710
 C        -2.596800         0.206198        -1.409589
 C        -1.573458        -0.541740        -2.260888
 C        -2.253994        -1.130474        -0.943397
 C        -1.445120        -1.180646         0.319088
 C        -0.251201        -0.194067         0.233004
 O         0.869296        -0.542180         0.547810
 C        -0.680031         1.190103        -0.093936
 O        -2.089100         1.179046        -0.434914
 H        -3.954302        -0.040992        -2.934318
 H        -4.738896         0.796620        -1.542580
 H        -3.696721         1.587032        -2.709750
 H        -2.000262        -0.929503        -3.178033
 H        -0.497491        -0.494277        -2.394677
 H        -3.048289        -1.931812        -0.993810
 H        -1.934025        -0.907234         1.259096
 H        -0.906981        -2.205353         0.512790
 H        -0.588749         1.716252         0.839233
 H        -0.066624         1.812656        -0.801408
