19
Iteration:  2477charge 0 multiplicity 1
 C        -3.818134         0.673624        -1.840285
 C        -2.446671         0.155568        -1.490998
 C        -1.879125        -0.930839        -2.328916
 C        -2.248132        -1.130237        -0.896403
 C        -1.256086        -1.277620         0.155349
 C        -0.268904        -0.112685         0.352297
 O         0.941702        -0.222992         0.459424
 C        -1.128694         1.158716         0.366231
 O        -1.629410         1.318903        -0.987571
 H        -3.844702         1.351418        -2.778086
 H        -4.432573        -0.230010        -2.088493
 H        -4.320927         1.169388        -0.975822
 H        -2.560490        -1.230721        -3.076453
 H        -0.807853        -1.012199        -2.523927
 H        -3.180720        -1.679429        -0.683813
 H        -1.833044        -1.301498         1.119717
 H        -0.635918        -2.090335        -0.050184
 H        -1.959611         0.960147         1.064775
 H        -0.665426         2.127360         0.780333
