19
Iteration:  1989charge 0 multiplicity 1
 C        -3.909349         0.862317        -1.709091
 C        -2.560831         0.274713        -1.420465
 C        -2.041719        -0.973078        -2.242357
 C        -2.263965        -1.195076        -0.827349
 C        -1.000766        -1.428340        -0.057311
 C        -0.251438        -0.168869         0.315585
 O         0.824955        -0.174497         0.974233
 C        -1.142269         1.098819         0.047782
 O        -1.455508         1.308225        -1.293118
 H        -3.805305         1.868402        -2.262132
 H        -4.360449         0.175902        -2.487398
 H        -4.643480         1.030703        -0.879335
 H        -2.720402        -1.167307        -3.084075
 H        -0.963431        -0.895759        -2.422627
 H        -3.129003        -1.699809        -0.460070
 H        -1.133359        -1.867414         0.904830
 H        -0.299658        -2.088471        -0.536225
 H        -2.013619         0.978049         0.688795
 H        -0.595146         1.916495         0.512702
