19
Iteration:  1673charge 0 multiplicity 1
 C        -3.859434         0.785634        -1.507067
 C        -2.456629         0.266443        -1.504347
 C        -2.102869        -0.938565        -2.387159
 C        -2.226017        -1.117138        -0.917544
 C        -0.989354        -1.502484        -0.160075
 C        -0.277857        -0.195300         0.326775
 O         0.644607        -0.078377         1.120605
 C        -0.968586         1.088650         0.022756
 O        -1.495596         1.316083        -1.256121
 H        -3.974503         1.483384        -2.392402
 H        -4.543451        -0.103472        -1.714740
 H        -4.285742         1.232198        -0.521644
 H        -2.970719        -1.224125        -2.983683
 H        -1.158691        -1.175231        -2.907906
 H        -3.119888        -1.660325        -0.620719
 H        -1.216245        -1.969055         0.796651
 H        -0.316435        -2.133352        -0.694994
 H        -1.785050         1.211924         0.668071
 H        -0.244865         1.930345         0.216995
