19
Iteration:  1655charge 0 multiplicity 1
 C        -3.840391         0.809344        -1.629153
 C        -2.447248         0.208567        -1.470995
 C        -2.364032        -0.949537        -2.400666
 C        -2.229923        -1.138371        -0.858798
 C        -0.800830        -1.358328        -0.275468
 C        -0.264417        -0.109314         0.352229
 O         0.606185        -0.150154         1.199151
 C        -1.023545         1.180660         0.103835
 O        -1.413905         1.156237        -1.291444
 H        -3.615493         1.657097        -2.199787
 H        -4.559761         0.118157        -1.999274
 H        -4.241625         1.033129        -0.641625
 H        -3.276104        -1.301006        -2.972783
 H        -1.387630        -0.990854        -2.892585
 H        -2.990989        -1.515643        -0.205994
 H        -0.880620        -2.055757         0.561372
 H        -0.051099        -1.813914        -1.032224
 H        -1.880772         1.088133         0.894107
 H        -0.350163         2.001665         0.272198
