19
Iteration:  1576charge 0 multiplicity 1
 C        -3.829258         0.742650        -1.072547
 C        -2.405969         0.203446        -1.465013
 C        -2.446056        -0.911731        -2.420436
 C        -2.080076        -1.204809        -0.956365
 C        -0.595627        -1.406605        -0.381608
 C        -0.331375        -0.102415         0.319797
 O         0.052767        -0.125410         1.475419
 C        -0.767967         1.263223        -0.221135
 O        -1.298061         1.170234        -1.572574
 H        -4.203139         1.141866        -1.978068
 H        -4.396739        -0.149682        -0.874409
 H        -3.825729         1.382052        -0.174859
 H        -3.357923        -1.332901        -2.794916
 H        -1.792428        -0.789456        -3.313478
 H        -2.910687        -1.726485        -0.430297
 H        -0.641827        -2.099727         0.468033
 H         0.156737        -1.722748        -1.157732
 H        -1.576227         1.619152         0.574702
 H         0.133935         1.990170        -0.240439
