19
Iteration:  3711
 C        -3.782736         1.067233        -1.380168
 C        -2.462158         0.184609        -1.482551
 C        -2.392461        -0.881947        -2.473892
 C        -2.081463        -1.250178        -1.064621
 C        -0.518680        -1.330346        -0.639066
 C        -0.342076        -0.195004         0.417306
 O         0.329975        -0.282073         1.490828
 C        -1.117525         1.062488         0.124495
 O        -1.412187         1.211912        -1.255982
 H        -4.696560         0.467377        -1.278388
 H        -3.752124         1.824097        -0.667804
 H        -3.785772         1.512073        -2.422540
 H        -3.308830        -1.250535        -2.836982
 H        -1.530818        -0.874172        -3.168973
 H        -2.747031        -1.867302        -0.476321
 H         0.010519        -2.219081        -0.230117
 H         0.107843        -1.211722        -1.582404
 H        -1.979516         1.042160         0.716584
 H        -0.451360         1.843526         0.344534
