19
Iteration:  3356
 C        -4.013030         0.649591        -1.531901
 C        -2.578386         0.200253        -1.496193
 C        -2.054552        -0.770942        -2.555926
 C        -2.218577        -1.166236        -1.037217
 C        -0.972380        -1.338784        -0.224516
 C        -0.211720        -0.156802         0.405701
 O         0.581357        -0.348554         1.296352
 C        -0.616478         1.263983        -0.088114
 O        -1.704339         1.318822        -1.031343
 H        -3.928398         1.736954        -1.636360
 H        -4.621250         0.313820        -2.377091
 H        -4.469561         0.327823        -0.603178
 H        -2.676714        -1.208481        -3.332766
 H        -1.050595        -0.672137        -2.913919
 H        -3.051177        -1.893454        -0.857313
 H        -1.178904        -1.943101         0.698359
 H        -0.272674        -1.952798        -0.846098
 H        -0.881784         1.992953         0.707901
 H         0.263511         1.634629        -0.567212
