19
Iteration:   730charge 0 multiplicity 1
 C        -3.963876         0.735784        -1.450359
 C        -2.566813         0.132321        -1.473313
 C        -2.220760        -0.953613        -2.323282
 C        -2.174435        -1.111775        -0.799591
 C        -0.677503        -1.306279        -0.475846
 C        -0.292668        -0.088577         0.406954
 O         0.555144        -0.052966         1.309739
 C        -1.107641         1.196346        -0.011213
 O        -1.366698         1.063172        -1.396979
 H        -4.310908         0.960529        -2.438410
 H        -4.621954        -0.029992        -1.018812
 H        -3.991991         1.587824        -0.693071
 H        -2.935229        -1.497673        -2.908978
 H        -1.199082        -0.934649        -2.694708
 H        -3.001566        -1.744766        -0.445081
 H        -0.283084        -2.208967         0.071791
 H        -0.038780        -1.032337        -1.378834
 H        -2.056585         1.497102         0.473957
 H        -0.337294         2.021026         0.111353
