19
Iteration:  1148
 C        -3.648038         0.727989        -2.221094
 C        -2.436342         0.212862        -1.391400
 C        -1.775107        -1.013118        -2.071260
 C        -2.376222        -1.094823        -0.669867
 C        -1.262673        -1.313817         0.398072
 C        -0.242191        -0.173710         0.271674
 O         0.961452        -0.173961         0.063342
 C        -1.154712         1.085161         0.377902
 O        -1.865538         1.367979        -0.834085
 H        -3.199251         1.325004        -3.104630
 H        -4.188974        -0.101182        -2.758219
 H        -4.200940         1.406213        -1.578321
 H        -2.114412        -1.455896        -3.009527
 H        -0.631283        -0.987230        -2.164867
 H        -3.308189        -1.618836        -0.534835
 H        -1.629002        -1.459414         1.395385
 H        -0.892175        -2.347310         0.158868
 H        -1.902167         0.951979         1.213046
 H        -0.533130         2.056431         0.532549
