19
Iteration:  3708charge 0 multiplicity 1
 C        -3.759519         1.038223        -1.370252
 C        -2.453653         0.184507        -1.481066
 C        -2.408338        -0.894718        -2.472726
 C        -2.073712        -1.226510        -1.054382
 C        -0.506083        -1.336193        -0.652216
 C        -0.333645        -0.198142         0.419192
 O         0.304391        -0.279735         1.483943
 C        -1.101497         1.063944         0.100918
 O        -1.435376         1.215169        -1.257584
 H        -4.694655         0.505574        -1.160431
 H        -3.648720         1.929751        -0.711608
 H        -3.695558         1.470798        -2.341362
 H        -3.380533        -1.209020        -2.977855
 H        -1.454108        -0.882757        -3.087122
 H        -2.866298        -1.821186        -0.528915
 H        -0.002591        -2.206729        -0.214756
 H         0.158756        -1.129039        -1.509289
 H        -2.054201         0.997161         0.770293
 H        -0.444284         1.829812         0.436760
