19
Iteration:  2226
 C        -3.770694         0.701575        -0.779440
 C        -2.460282         0.181495        -1.412987
 C        -2.397193        -0.848649        -2.417053
 C        -1.898628        -1.214943        -1.056986
 C        -0.483951        -1.266378        -0.605563
 C        -0.487883        -0.062693         0.400537
 O        -0.284862        -0.077067         1.602700
 C        -0.677331         1.199716        -0.362922
 O        -1.320467         1.024711        -1.682343
 H        -4.350984         1.168120        -1.568176
 H        -4.424051        -0.034168        -0.316716
 H        -3.539756         1.438730        -0.055744
 H        -3.285102        -1.453798        -2.683472
 H        -1.554599        -0.678187        -3.182070
 H        -2.487379        -1.838058        -0.356213
 H        -0.359877        -2.140980         0.070634
 H         0.485333        -1.229574        -1.264399
 H        -0.999190         2.095436         0.139306
 H         0.475667         1.259850        -0.540406
