19
Iteration:  2535charge 0 multiplicity 1
 C        -3.810252         0.849292        -2.021830
 C        -2.550543         0.204576        -1.467827
 C        -1.691981        -0.854611        -2.015988
 C        -2.412417        -1.166074        -0.740539
 C        -1.148879        -1.425877         0.179138
 C        -0.284608        -0.209706         0.242206
 O         0.936591        -0.192434         0.347474
 C        -1.128885         1.212562         0.281779
 O        -1.742965         1.222549        -0.958243
 H        -3.732234         1.866791        -2.374207
 H        -4.152220         0.155550        -2.838874
 H        -4.624123         0.687930        -1.310059
 H        -1.719878        -1.376683        -3.013782
 H        -0.670233        -0.559262        -1.866126
 H        -3.330769        -1.727795        -0.752786
 H        -1.502463        -1.594570         1.164840
 H        -0.646418        -2.390268        -0.048962
 H        -1.785576         1.193626         1.191117
 H        -0.410364         1.975771         0.284130
