19
Iteration:   952
 C        -3.735897         0.972042        -1.162077
 C        -2.441249         0.172393        -1.439412
 C        -2.505517        -1.162260        -2.231823
 C        -1.896005        -1.178730        -0.857536
 C        -0.383231        -1.092048        -0.769461
 C        -0.359457        -0.088372         0.372097
 O        -0.146459        -0.251939         1.543208
 C        -0.901751         1.180214        -0.166698
 O        -1.387776         1.011330        -1.532404
 H        -3.705726         1.658233        -2.098525
 H        -4.713492         0.407518        -1.031211
 H        -3.493265         1.683312        -0.347290
 H        -3.513768        -1.577324        -2.337415
 H        -1.746939        -1.254704        -3.021303
 H        -2.283132        -1.775140         0.000402
 H         0.322828        -1.915696        -0.550306
 H         0.097564        -0.585010        -1.701489
 H        -1.646326         1.759494         0.331584
 H         0.075602         1.826996        -0.193169
