19
Iteration:  3850charge 0 multiplicity 1
 C        -3.968344         0.724884        -1.483673
 C        -2.485762         0.314770        -1.486988
 C        -2.009665        -0.651693        -2.600877
 C        -2.113079        -1.173119        -1.130964
 C        -1.049720        -1.420031        -0.128011
 C        -0.371120        -0.214410         0.434200
 O         0.634999        -0.384819         1.140336
 C        -0.852162         1.176323         0.112712
 O        -1.529976         1.308605        -1.127571
 H        -4.415648        -0.289724        -1.350533
 H        -4.333009         1.332059        -0.592105
 H        -4.350481         1.233447        -2.403278
 H        -2.708342        -1.176908        -3.322108
 H        -1.015268        -0.424941        -3.016269
 H        -2.995211        -1.767371        -1.058068
 H        -1.558927        -1.971095         0.685577
 H        -0.360730        -2.129347        -0.483047
 H        -1.439443         1.468519         0.966759
 H        -0.108427         1.897810        -0.064895
