19
Iteration:   295
 C        -3.933753         0.737542        -1.229584
 C        -2.514849         0.109999        -1.440054
 C        -2.148524        -0.950148        -2.476776
 C        -2.105912        -1.334495        -0.977838
 C        -0.858026        -1.410677        -0.037313
 C        -0.368606        -0.007574         0.385787
 O         0.571266         0.206942         1.129642
 C        -0.982706         1.182309        -0.120695
 O        -1.418944         1.016895        -1.488291
 H        -4.244498         0.642498        -0.199027
 H        -3.919330         1.831382        -1.416938
 H        -4.726273         0.292423        -1.948369
 H        -3.016180        -1.439851        -2.977100
 H        -1.212717        -0.590024        -2.940771
 H        -2.858056        -1.997722        -0.668574
 H        -1.206742        -1.829391         0.925682
 H        -0.010929        -1.989576        -0.464290
 H        -1.851469         1.554155         0.493651
 H        -0.245052         2.056907        -0.159698
