19
Iteration:   819charge 0 multiplicity 1
 C        -3.921412         0.422672        -0.839679
 C        -2.540062         0.191242        -1.381970
 C        -2.150609        -0.789448        -2.504364
 C        -2.002418        -1.199786        -1.044840
 C        -0.625317        -1.475120        -0.400810
 C        -0.347006        -0.010219         0.335859
 O        -0.181118         0.033849         1.545543
 C        -0.433164         1.229355        -0.524814
 O        -1.541319         1.223591        -1.488756
 H        -4.241708         1.484760        -0.948442
 H        -4.715110        -0.169117        -1.333830
 H        -3.932675         0.254174         0.269177
 H        -2.805833        -1.262418        -3.196275
 H        -1.306536        -0.449806        -2.968883
 H        -2.753218        -1.761641        -0.473103
 H        -0.653912        -2.231540         0.384278
 H         0.273545        -1.595486        -1.123593
 H        -0.447988         2.105642         0.130838
 H         0.543786         1.125442        -1.159163
