19
Iteration:  4544charge 0 multiplicity 1
 C        -3.870864         0.675098        -1.846632
 C        -2.460581         0.273234        -1.521984
 C        -1.821632        -0.709766        -2.482493
 C        -2.290626        -1.172451        -1.073073
 C        -1.305687        -1.338563         0.088070
 C        -0.290267        -0.202955         0.313933
 O         0.774478        -0.393156         0.877283
 C        -0.687772         1.185584         0.003323
 O        -1.855344         1.338358        -0.657858
 H        -4.299952        -0.105632        -2.479362
 H        -4.502273         0.789631        -0.874995
 H        -3.740749         1.594922        -2.345069
 H        -2.543437        -1.065525        -3.313496
 H        -0.736159        -0.653505        -2.651404
 H        -3.153826        -1.896760        -1.017952
 H        -1.593024        -1.402899         1.151040
 H        -0.571239        -2.200768        -0.121820
 H        -0.880562         1.726283         0.988945
 H         0.227612         1.601383        -0.450942
