19
Iteration:  3810charge 0 multiplicity 1
 C        -3.931580         0.730367        -1.275297
 C        -2.514731         0.224073        -1.495132
 C        -1.967260        -0.532714        -2.611354
 C        -2.112466        -1.224788        -1.248050
 C        -1.107760        -1.446087        -0.135714
 C        -0.284109        -0.186804         0.401750
 O         0.567896        -0.354659         1.345118
 C        -0.802185         1.181430        -0.125878
 O        -1.599261         1.266119        -1.213302
 H        -4.583172         0.017362        -1.776019
 H        -4.077578         0.803344        -0.260298
 H        -4.150576         1.685772        -1.873025
 H        -2.477810        -1.157189        -3.351739
 H        -1.076839        -0.134264        -2.934759
 H        -3.046932        -1.842726        -1.140176
 H        -1.538718        -1.875995         0.805626
 H        -0.258923        -2.227252        -0.219815
 H        -1.568018         1.426386         0.761220
 H         0.111779         1.806680        -0.083107
