19
Iteration:  2513
 C        -3.774972         0.837540        -2.086924
 C        -2.557402         0.187737        -1.440153
 C        -1.820262        -0.931845        -2.191112
 C        -2.305564        -1.217601        -0.768780
 C        -1.179525        -1.375426         0.264306
 C        -0.259425        -0.212050         0.372782
 O         0.921968        -0.099985         0.332459
 C        -1.035367         1.134412         0.326543
 O        -1.788344         1.290575        -0.916057
 H        -3.333463         1.811958        -2.327192
 H        -4.132281         0.342643        -3.000010
 H        -4.657423         1.044896        -1.465149
 H        -2.459366        -1.424083        -2.952979
 H        -0.787057        -0.947501        -2.499676
 H        -3.125216        -1.864928        -0.525963
 H        -1.614303        -1.860780         1.090217
 H        -0.545750        -2.189138        -0.136724
 H        -1.746945         1.048373         1.212613
 H        -0.352627         1.955404         0.373832
