19
Iteration:  4011charge 0 multiplicity 1
 C        -4.008221         0.717125        -1.577052
 C        -2.437150         0.269274        -1.524842
 C        -1.985621        -0.661126        -2.524471
 C        -2.150229        -1.138161        -1.111973
 C        -1.133064        -1.375181        -0.031896
 C        -0.318408        -0.203575         0.392667
 O         0.725405        -0.389987         0.975440
 C        -0.930050         1.230976         0.232169
 O        -1.504571         1.220785        -1.110179
 H        -4.650748        -0.166054        -1.642046
 H        -4.298505         1.340549        -0.674176
 H        -4.149870         1.311436        -2.422201
 H        -2.650067        -1.107743        -3.287407
 H        -0.996383        -0.346974        -2.796368
 H        -2.935258        -1.767417        -0.954656
 H        -1.875734        -1.677000         0.704280
 H        -0.436777        -2.202249        -0.272388
 H        -1.629901         1.274139         1.147082
 H        -0.155338         2.005422         0.254460
