19
Iteration:   596
 C        -3.873081         0.521116        -1.877018
 C        -2.530231         0.173009        -1.398453
 C        -1.859306        -0.884542        -2.317862
 C        -2.247738        -1.191372        -0.825735
 C        -1.145788        -1.334112         0.140754
 C        -0.221055        -0.150389         0.248555
 O         0.923074        -0.090402         0.688496
 C        -0.875964         1.215774         0.023731
 O        -1.904241         1.357599        -0.900476
 H        -3.935242         1.347039        -2.653914
 H        -4.406289        -0.343802        -2.347884
 H        -4.628893         0.854736        -1.123996
 H        -2.611990        -1.138372        -3.125591
 H        -0.816392        -1.090302        -2.505723
 H        -3.138270        -1.739765        -0.651514
 H        -1.650073        -1.477064         1.205446
 H        -0.559988        -2.299306         0.061805
 H        -1.220080         1.562949         1.019105
 H        -0.102305         1.897953        -0.255821
