19
Iteration:  3815charge 0 multiplicity 1
 C        -3.937342         0.748493        -1.303235
 C        -2.515028         0.182985        -1.511947
 C        -1.983601        -0.541240        -2.640637
 C        -2.152540        -1.221292        -1.272512
 C        -1.113156        -1.400887        -0.129717
 C        -0.276126        -0.197766         0.468695
 O         0.596151        -0.347967         1.326410
 C        -0.793814         1.146229        -0.080350
 O        -1.593167         1.259641        -1.209996
 H        -4.624442        -0.061768        -1.666528
 H        -4.206575         0.884953        -0.156038
 H        -4.305332         1.551178        -1.891074
 H        -2.402316        -1.122065        -3.451692
 H        -0.945168        -0.062449        -2.860243
 H        -2.963633        -1.913610        -1.113877
 H        -1.671900        -1.733004         0.765239
 H        -0.261141        -2.062018        -0.317064
 H        -1.338551         1.504540         0.746297
 H         0.120923         1.858009        -0.120643
