19
Iteration:  4702
 C        -3.946585         0.599318        -1.665295
 C        -2.561386         0.338312        -1.402572
 C        -1.889901        -0.561727        -2.501749
 C        -2.157337        -1.110377        -1.038016
 C        -1.115730        -1.451918        -0.075648
 C        -0.348159        -0.273879         0.379980
 O         0.552662        -0.348132         1.191587
 C        -0.555131         1.038346        -0.296900
 O        -1.786012         1.425540        -0.803547
 H        -4.494548         0.061913        -2.458546
 H        -4.439817         0.713910        -0.761653
 H        -3.917635         1.678411        -2.102463
 H        -2.611048        -1.020361        -3.225279
 H        -0.925759        -0.388808        -2.945265
 H        -2.919696        -1.841748        -1.126997
 H        -1.625189        -1.945406         0.799089
 H        -0.284044        -2.251259        -0.287987
 H        -0.217807         1.796705         0.420775
 H         0.236829         1.059410        -1.133903
