19
Iteration:  2332charge 0 multiplicity 1
 C        -3.886784         0.860335        -1.386362
 C        -2.531176         0.145002        -1.549513
 C        -2.260876        -1.128904        -2.461698
 C        -2.183052        -1.263319        -0.954079
 C        -0.732182        -1.320931        -0.350054
 C        -0.265393        -0.028405         0.361315
 O         0.387214        -0.082675         1.408013
 C        -0.766619         1.239982        -0.103697
 O        -1.522312         1.158032        -1.285665
 H        -3.437563         1.875570        -1.401526
 H        -4.767812         0.678346        -2.104989
 H        -4.344452         0.816359        -0.350386
 H        -3.163424        -1.412761        -3.016897
 H        -1.291303        -1.281673        -3.067349
 H        -2.919644        -1.858695        -0.449401
 H        -0.502496        -2.111540         0.405066
 H        -0.124360        -1.384035        -1.262914
 H        -1.527294         1.420709         0.763557
 H        -0.062067         2.038569         0.019808
