19
Iteration:  3824charge 0 multiplicity 1
 C        -3.986726         0.701056        -1.341229
 C        -2.597045         0.237313        -1.528430
 C        -1.952133        -0.606283        -2.699668
 C        -2.142340        -1.182514        -1.250023
 C        -1.091109        -1.333717        -0.113466
 C        -0.317457        -0.215200         0.502979
 O         0.624062        -0.333476         1.281224
 C        -0.747470         1.127682         0.053527
 O        -1.573189         1.226512        -1.205393
 H        -4.674977        -0.135977        -1.422406
 H        -4.165004         1.087839        -0.279747
 H        -4.215008         1.553433        -1.956711
 H        -2.532444        -0.864231        -3.581028
 H        -0.907600        -0.257821        -2.872702
 H        -2.916521        -1.979468        -1.248858
 H        -1.749398        -1.746724         0.707300
 H        -0.392120        -2.178881        -0.469195
 H        -1.159218         1.663937         0.930947
 H         0.100774         1.856733        -0.341929
