19
Iteration:  4580
 C        -3.954520         0.766000        -1.787614
 C        -2.601940         0.276333        -1.481548
 C        -1.700472        -0.583665        -2.267784
 C        -2.234734        -1.145923        -0.988662
 C        -1.111826        -1.494473         0.077683
 C        -0.296900        -0.313770         0.309609
 O         0.683704        -0.390117         1.020524
 C        -0.657207         1.114893        -0.248221
 O        -1.955814         1.388112        -0.807612
 H        -4.529750         0.264530        -2.555775
 H        -4.574852         0.929294        -0.898238
 H        -3.859718         1.776812        -2.229857
 H        -1.944187        -0.946594        -3.205368
 H        -0.695947        -0.256171        -2.318415
 H        -3.045208        -1.794921        -1.360562
 H        -1.418790        -2.101268         0.979129
 H        -0.442715        -2.297355        -0.509661
 H        -0.347108         1.712667         0.558271
 H         0.076652         1.343929        -1.047893
