19
Iteration:  4217
 C        -3.997086         0.672760        -1.808086
 C        -2.616339         0.244683        -1.367742
 C        -1.842111        -0.505007        -2.489073
 C        -2.158576        -1.185825        -1.071282
 C        -1.131169        -1.388063         0.066996
 C        -0.301287        -0.213699         0.401195
 O         0.694537        -0.390704         1.135595
 C        -0.583070         1.121383        -0.230688
 O        -1.832941         1.301330        -0.832607
 H        -4.554692         0.043127        -2.548525
 H        -4.710777         0.748962        -0.908275
 H        -4.122999         1.643575        -2.195957
 H        -2.423503        -1.139377        -3.231134
 H        -1.082898         0.082129        -2.985697
 H        -2.934968        -1.855764        -1.093497
 H        -1.688449        -1.814360         0.877348
 H        -0.522184        -2.311471        -0.217955
 H        -0.334208         1.796336         0.544544
 H         0.329130         1.313210        -0.922745
