19
Iteration:  3226charge 0 multiplicity 1
 C        -3.907114         0.691596        -1.947511
 C        -2.555988         0.225762        -1.477631
 C        -1.515603        -0.579313        -2.297461
 C        -2.189639        -1.133781        -0.988427
 C        -1.372473        -1.374863         0.343250
 C        -0.306811        -0.263010         0.334861
 O         0.895991        -0.336059         0.546003
 C        -0.780912         1.150045        -0.165449
 O        -2.063658         1.229725        -0.550948
 H        -3.886248         1.406646        -2.785620
 H        -4.523730        -0.149518        -2.257225
 H        -4.398773         1.276396        -1.177706
 H        -1.800113        -0.985113        -3.225995
 H        -0.440450        -0.365583        -2.144288
 H        -3.017211        -1.948377        -1.168421
 H        -2.117842        -1.177692         1.120235
 H        -0.907733        -2.286236         0.579445
 H        -0.489596         1.840010         0.630569
 H        -0.012468         1.520092        -0.943481
