19
Iteration:  2993charge 0 multiplicity 1
 C        -4.047879         0.704585        -1.552341
 C        -2.537471         0.228180        -1.398340
 C        -2.238375        -0.895528        -2.434011
 C        -2.124073        -1.129193        -0.912426
 C        -0.742770        -1.402268        -0.276464
 C        -0.229255        -0.185238         0.441299
 O         0.455019        -0.248905         1.436072
 C        -0.771600         1.267358        -0.156016
 O        -1.520358         1.289618        -1.383183
 H        -4.204180         0.962665        -2.587984
 H        -4.652808        -0.160845        -1.291346
 H        -4.242400         1.593326        -0.969326
 H        -3.161747        -1.356503        -2.805408
 H        -1.321013        -0.736137        -3.020620
 H        -2.853923        -1.589015        -0.301668
 H        -0.756271        -2.244761         0.337739
 H        -0.066423        -1.661169        -1.132180
 H        -1.278198         1.629171         0.712352
 H         0.067835         1.891457        -0.160433
