19
Iteration:  2180
 C        -3.692359         0.751653        -0.887090
 C        -2.399653         0.128399        -1.388931
 C        -2.446830        -1.064352        -2.362373
 C        -1.933798        -1.235869        -0.970156
 C        -0.467389        -1.265556        -0.619681
 C        -0.516326        -0.005300         0.300174
 O        -0.351778        -0.165080         1.502246
 C        -0.582354         1.332599        -0.367792
 O        -1.357699         1.143939        -1.527416
 H        -3.821186         1.725102        -1.314292
 H        -4.606393         0.166187        -1.134976
 H        -3.594926         0.789676         0.205274
 H        -3.493400        -1.344685        -2.710093
 H        -1.715156        -1.189066        -3.148826
 H        -2.498346        -1.717747        -0.210917
 H        -0.272265        -2.068571         0.137819
 H         0.322589        -1.340969        -1.397376
 H        -0.806525         2.086201         0.379007
 H         0.463326         1.564269        -0.695474
