19
Iteration:  2580
 C        -3.907602         0.520459        -1.787763
 C        -2.369703         0.252593        -1.566035
 C        -1.798395        -0.770637        -2.390603
 C        -2.099263        -1.108100        -0.959065
 C        -1.383699        -1.309510         0.322983
 C        -0.360783        -0.164626         0.430517
 O         0.887034        -0.312299         0.391490
 C        -1.010250         1.258495         0.355230
 O        -1.684988         1.318772        -0.977433
 H        -4.140097         1.156617        -2.634790
 H        -4.513012        -0.430524        -1.991008
 H        -4.280061         0.898585        -0.831732
 H        -2.380903        -1.241599        -3.268603
 H        -0.700167        -0.741424        -2.692475
 H        -3.054115        -1.704540        -1.096070
 H        -1.975394        -1.139089         1.186713
 H        -0.966080        -2.380307         0.517486
 H        -1.668646         1.437930         1.237361
 H        -0.195678         1.934326         0.230092
