19
Iteration:  3259charge 0 multiplicity 1
 C        -4.035298         0.567761        -1.918537
 C        -2.590926         0.204917        -1.390939
 C        -1.653810        -0.441300        -2.357954
 C        -2.137632        -1.161971        -1.064944
 C        -1.311753        -1.186060         0.206914
 C        -0.186364        -0.236164         0.276845
 O         0.828306        -0.501655         0.873007
 C        -0.631979         1.205191        -0.387259
 O        -2.010042         1.195268        -0.445215
 H        -3.819219         0.781228        -2.945113
 H        -4.713357        -0.285796        -1.965485
 H        -4.507527         1.368504        -1.381000
 H        -2.042166        -0.745299        -3.298365
 H        -0.585027        -0.245146        -2.354282
 H        -2.863428        -1.961726        -1.336519
 H        -2.142652        -0.772545         0.744530
 H        -1.065202        -2.101279         0.607105
 H        -0.428322         2.013821         0.301328
 H        -0.166467         1.442926        -1.400335
