19
Iteration:  4468charge 0 multiplicity 1
 C        -3.809154         0.664001        -1.953957
 C        -2.472827         0.274001        -1.449773
 C        -1.435574        -0.602917        -2.238963
 C        -2.257575        -1.124187        -0.989454
 C        -1.439721        -1.390713         0.258900
 C        -0.390176        -0.255742         0.358922
 O         0.813360        -0.474240         0.482746
 C        -0.733902         1.160466        -0.054633
 O        -2.096759         1.417147        -0.601058
 H        -4.219121        -0.319458        -2.239510
 H        -4.381209         0.953265        -1.001392
 H        -3.821983         1.384842        -2.692622
 H        -1.740020        -1.017133        -3.218719
 H        -0.311649        -0.595179        -1.996746
 H        -3.120927        -1.817234        -1.084276
 H        -2.064839        -1.191593         1.134374
 H        -0.705787        -2.283295         0.147021
 H        -0.405623         1.810041         0.722720
 H        -0.053745         1.323802        -0.885897
