19
Iteration:  4075charge 0 multiplicity 1
 C        -3.847998         0.726331        -1.652532
 C        -2.476424         0.293609        -1.420567
 C        -1.859305        -0.731692        -2.366000
 C        -2.244139        -1.232832        -0.982359
 C        -1.101856        -1.507782        -0.164244
 C        -0.274236        -0.266664         0.238413
 O         0.557445        -0.343266         1.105804
 C        -0.700157         1.196744        -0.115649
 O        -1.841706         1.428521        -0.911445
 H        -4.486313         0.154663        -2.376676
 H        -4.441314         0.929850        -0.632520
 H        -3.744227         1.748266        -2.166830
 H        -2.332526        -0.767359        -3.340449
 H        -0.760317        -0.709548        -2.512370
 H        -3.080045        -1.828533        -0.844960
 H        -1.261110        -1.942976         0.826814
 H        -0.299816        -2.239515        -0.584942
 H        -0.821903         1.633341         0.849323
 H         0.001509         1.955919        -0.600896
