19
Iteration:  4005
 C        -3.971941         0.757466        -1.527543
 C        -2.453438         0.274837        -1.476012
 C        -1.939736        -0.709641        -2.510177
 C        -2.122639        -1.147112        -1.103331
 C        -1.135294        -1.375421        -0.089025
 C        -0.343360        -0.181951         0.342216
 O         0.710904        -0.373647         0.964002
 C        -1.000967         1.173418         0.216400
 O        -1.480674         1.238091        -1.105206
 H        -4.556840        -0.175222        -1.618402
 H        -4.195260         1.275334        -0.628945
 H        -4.088829         1.355389        -2.513831
 H        -2.603702        -1.131101        -3.223178
 H        -0.952150        -0.420195        -2.985707
 H        -3.134198        -1.698059        -0.850005
 H        -1.795275        -1.586065         0.807868
 H        -0.540380        -2.274916        -0.227426
 H        -1.747732         1.398017         0.981435
 H        -0.258166         1.955698         0.442111
