19
Iteration:  2942charge 0 multiplicity 1
 C        -3.697447         0.775400        -0.935108
 C        -2.451228         0.158001        -1.493775
 C        -2.383724        -0.945451        -2.502336
 C        -2.089332        -1.287247        -1.084342
 C        -0.589323        -1.273752        -0.541968
 C        -0.431092        -0.111866         0.443618
 O        -0.022200        -0.057371         1.631516
 C        -0.775744         1.285229        -0.266622
 O        -1.350416         1.030799        -1.560797
 H        -3.689291         1.844270        -1.304652
 H        -4.560262         0.231639        -1.275104
 H        -3.659631         0.997597         0.163317
 H        -3.323624        -1.252936        -2.930710
 H        -1.473258        -1.018759        -3.152076
 H        -2.735142        -1.978012        -0.496630
 H        -0.262950        -2.229494        -0.089170
 H         0.068718        -1.114043        -1.387205
 H        -1.375353         1.887697         0.494326
 H         0.159772         1.880299        -0.424922
