19
Iteration:   502charge 0 multiplicity 1
 C        -3.971023         0.252087        -2.005275
 C        -2.558261         0.207888        -1.450101
 C        -1.444707        -0.526671        -2.185196
 C        -2.093105        -1.128957        -0.981574
 C        -1.444112        -0.995839         0.390941
 C        -0.220596        -0.090964         0.266021
 O         0.896152        -0.525632         0.367293
 C        -0.748674         1.282430        -0.145201
 O        -2.149451         1.220304        -0.466741
 H        -3.997071         0.408404        -3.072466
 H        -4.536165        -0.695703        -1.760995
 H        -4.575835         1.054371        -1.467202
 H        -1.712998        -0.915679        -3.240939
 H        -0.420043        -0.159290        -2.019103
 H        -2.736115        -2.047885        -0.972308
 H        -2.159747        -0.560694         1.072594
 H        -1.079153        -2.000853         0.863955
 H        -0.623398         2.023730         0.678204
 H        -0.158678         1.804273        -1.002585
