19
Iteration:  4614charge 0 multiplicity 1
 C        -3.957080         0.626326        -1.761386
 C        -2.562937         0.327415        -1.416225
 C        -1.844426        -0.513045        -2.484608
 C        -2.260107        -1.135708        -1.203363
 C        -1.227998        -1.397801         0.021524
 C        -0.193064        -0.220019         0.371841
 O         0.682960        -0.372783         1.221213
 C        -0.500196         1.053063        -0.344413
 O        -1.895367         1.298465        -0.631033
 H        -4.409753        -0.267430        -2.228351
 H        -4.624252         0.834472        -0.962955
 H        -3.931625         1.523337        -2.482748
 H        -2.417823        -0.676871        -3.326115
 H        -0.766469        -0.319328        -2.574745
 H        -3.038355        -1.908242        -1.266301
 H        -1.942137        -1.409677         0.896263
 H        -0.508301        -2.315895        -0.223230
 H        -0.117209         1.938900         0.090527
 H        -0.113902         0.939646        -1.374216
