19
Iteration:  4010
 C        -4.006106         0.722981        -1.568859
 C        -2.432556         0.268250        -1.519463
 C        -1.977459        -0.667280        -2.518729
 C        -2.143581        -1.139628        -1.110010
 C        -1.134483        -1.372149        -0.040183
 C        -0.324088        -0.200941         0.380515
 O         0.722712        -0.387799         0.973933
 C        -0.944449         1.223533         0.230014
 O        -1.500685         1.221270        -1.108668
 H        -4.635710        -0.174662        -1.640385
 H        -4.284972         1.344044        -0.642723
 H        -4.136998         1.325882        -2.459715
 H        -2.653955        -1.127131        -3.289727
 H        -1.014630        -0.352281        -2.816747
 H        -2.963894        -1.753969        -0.922847
 H        -1.883768        -1.659819         0.697120
 H        -0.439527        -2.236490        -0.276489
 H        -1.634821         1.290151         1.125497
 H        -0.149472         2.020387         0.298246
