19
Iteration:  1136
 C        -3.694940         0.694802        -2.171400
 C        -2.508410         0.207931        -1.436572
 C        -1.719368        -0.931557        -2.040726
 C        -2.445047        -1.115816        -0.642941
 C        -1.181585        -1.403965         0.346730
 C        -0.232301        -0.113556         0.293614
 O         0.987414        -0.300824         0.155267
 C        -1.164085         1.180000         0.313175
 O        -1.829530         1.434385        -0.931740
 H        -3.265397         1.416799        -2.944400
 H        -4.267259        -0.147295        -2.623734
 H        -4.460841         1.202730        -1.644962
 H        -2.252264        -1.113922        -2.981655
 H        -0.629141        -1.138567        -1.896321
 H        -3.346522        -1.726512        -0.440098
 H        -1.585048        -1.552444         1.369211
 H        -0.489858        -2.197476        -0.019879
 H        -1.948049         0.791978         1.018936
 H        -0.737614         2.153905         0.786362
