19
Iteration:  4755charge 0 multiplicity 1
 C        -3.930918         0.867627        -1.716331
 C        -2.571235         0.300744        -1.439556
 C        -1.835852        -0.703634        -2.465009
 C        -2.208929        -1.227719        -1.024126
 C        -1.036837        -1.424691        -0.116895
 C        -0.334470        -0.247153         0.409142
 O         0.605592        -0.363977         1.152182
 C        -0.614684         1.111114        -0.212712
 O        -1.877332         1.303511        -0.807703
 H        -4.605393         0.033775        -2.065619
 H        -4.449042         1.294643        -0.841661
 H        -3.877980         1.816208        -2.379323
 H        -2.436849        -1.003237        -3.352430
 H        -0.828517        -0.589601        -2.729686
 H        -3.081215        -1.805790        -0.773992
 H        -1.335824        -2.061132         0.699267
 H        -0.144162        -1.832371        -0.610016
 H        -0.468636         1.837184         0.551202
 H         0.146085         1.191281        -1.042124
