19
Iteration:  4601
 C        -4.080447         0.724458        -1.823043
 C        -2.591168         0.306271        -1.440446
 C        -1.733461        -0.492236        -2.399330
 C        -2.201407        -1.094922        -1.051054
 C        -1.175267        -1.410926        -0.021415
 C        -0.272003        -0.301397         0.416725
 O         0.707420        -0.364621         1.152272
 C        -0.551697         1.028406        -0.382794
 O        -1.906667         1.308456        -0.680649
 H        -4.431761        -0.109126        -2.420243
 H        -4.705324         0.862628        -0.869983
 H        -4.135633         1.595597        -2.469543
 H        -2.117175        -0.921501        -3.273823
 H        -0.690139        -0.340662        -2.545112
 H        -3.066767        -1.841867        -1.101561
 H        -1.555726        -1.847497         0.940450
 H        -0.615823        -2.419158        -0.261788
 H        -0.254590         1.841992         0.257055
 H         0.204938         0.998889        -1.199011
