19
Iteration:  1281
 C        -3.865397         0.758793        -1.821109
 C        -2.509662         0.143122        -1.451772
 C        -1.872736        -0.930584        -2.353715
 C        -2.317842        -1.228438        -0.940938
 C        -1.159682        -1.354375         0.141023
 C        -0.266452        -0.139073         0.402319
 O         0.912407        -0.265371         0.720517
 C        -0.941702         1.310883         0.150417
 O        -1.756261         1.309760        -1.042864
 H        -3.671433         1.649134        -2.441920
 H        -4.576546         0.145109        -2.406163
 H        -4.414524         1.029125        -0.871504
 H        -2.594882        -1.320560        -3.066915
 H        -0.852191        -0.856725        -2.650035
 H        -3.201845        -1.827242        -0.813786
 H        -1.787207        -1.581641         1.026715
 H        -0.548687        -2.250777        -0.118409
 H        -1.359596         1.688159         1.118998
 H        -0.093607         1.923770         0.020893
