19
Iteration:  1568charge 0 multiplicity 1
 C        -3.813382         0.645829        -1.004821
 C        -2.440552         0.242434        -1.474623
 C        -2.423676        -0.858306        -2.470943
 C        -2.048836        -1.150908        -0.970572
 C        -0.654965        -1.375881        -0.365148
 C        -0.352697        -0.131095         0.345066
 O         0.005049        -0.137276         1.508059
 C        -0.709203         1.226146        -0.283299
 O        -1.296780         1.164746        -1.595335
 H        -4.442444         1.060570        -1.774673
 H        -4.297107        -0.248317        -0.650774
 H        -3.788520         1.362822        -0.199641
 H        -3.377065        -1.344717        -2.722157
 H        -1.588174        -0.847366        -3.227053
 H        -2.846727        -1.622817        -0.456891
 H        -0.523901        -2.056204         0.471209
 H         0.229510        -1.625601        -1.073769
 H        -1.371180         1.910025         0.323692
 H         0.173572         1.827003        -0.446100
