19
Iteration:  1994charge 0 multiplicity 1
 C        -3.903759         0.845826        -1.713533
 C        -2.506925         0.252964        -1.460492
 C        -2.072766        -0.967413        -2.262382
 C        -2.335072        -1.192868        -0.835817
 C        -0.961591        -1.388876        -0.100815
 C        -0.213628        -0.138671         0.315920
 O         0.820022        -0.189243         1.023002
 C        -1.121205         1.143202         0.076758
 O        -1.465578         1.281484        -1.283575
 H        -3.963822         1.771198        -2.213392
 H        -4.520690         0.235247        -2.346753
 H        -4.472502         0.987537        -0.793675
 H        -2.658116        -1.289020        -3.119014
 H        -0.996961        -1.076046        -2.420458
 H        -3.269441        -1.641244        -0.390625
 H        -1.198452        -1.992875         0.913260
 H        -0.365709        -2.150258        -0.750682
 H        -1.988666         0.977026         0.785846
 H        -0.651391         2.090654         0.422886
