19
Iteration:   684
 C        -3.754327         0.821520        -1.333948
 C        -2.446618         0.108843        -1.541038
 C        -2.219426        -1.009189        -2.573722
 C        -2.079777        -1.344587        -1.104976
 C        -0.923602        -1.457035        -0.103601
 C        -0.317957        -0.033210         0.417349
 O         0.714438         0.142221         1.038711
 C        -1.194053         1.223018         0.153086
 O        -1.519334         1.125003        -1.272336
 H        -3.713122         1.544134        -2.167178
 H        -4.641892         0.129959        -1.447789
 H        -3.750010         1.209252        -0.237494
 H        -3.190926        -1.383108        -3.035697
 H        -1.337656        -1.046963        -3.321509
 H        -2.891046        -1.865759        -0.609610
 H        -1.474898        -1.745154         0.886285
 H        -0.047400        -2.171150        -0.217151
 H        -2.087767         1.288265         0.863204
 H        -0.556967         2.092293         0.215524
