19
Iteration:  2439
 C        -3.954783         0.769140        -1.584663
 C        -2.515652         0.227198        -1.397242
 C        -1.752666        -0.767104        -2.310090
 C        -2.076999        -1.201768        -0.904150
 C        -1.173840        -1.531569         0.151987
 C        -0.433559        -0.170074         0.407212
 O         0.761520        -0.150813         0.649696
 C        -1.097090         1.179910         0.080102
 O        -1.532380         1.264429        -1.254858
 H        -4.167655         1.171951        -2.548366
 H        -4.759500         0.032119        -1.381453
 H        -4.004915         1.569694        -0.834059
 H        -2.176163        -1.270078        -3.208408
 H        -0.759399        -0.311429        -2.541187
 H        -2.906360        -1.884217        -0.932726
 H        -1.718935        -1.841290         1.081298
 H        -0.606393        -2.526098        -0.067055
 H        -1.985219         1.335814         0.722139
 H        -0.327233         1.873569         0.220326
