19
Iteration:  3945
 C        -3.743555         1.023451        -1.577806
 C        -2.508773         0.214395        -1.487831
 C        -2.061756        -0.777401        -2.520933
 C        -2.193298        -1.236995        -0.996428
 C        -1.026008        -1.388720        -0.209708
 C        -0.431067        -0.163201         0.417227
 O         0.727829        -0.107547         0.845720
 C        -1.241968         1.016333         0.389720
 O        -1.324071         1.040541        -1.077090
 H        -4.471289         0.527227        -2.180483
 H        -4.282719         1.278164        -0.636570
 H        -3.503979         1.940449        -2.000793
 H        -2.942930        -1.027342        -3.191649
 H        -1.080990        -0.856112        -2.924142
 H        -2.967304        -1.884964        -0.740420
 H        -1.350499        -2.023842         0.653004
 H        -0.178624        -1.928868        -0.705927
 H        -2.340191         0.908052         0.654105
 H        -0.659935         1.914114         0.761033
