19
Iteration:  3427charge 0 multiplicity 1
 C        -3.859346         0.892428        -1.115930
 C        -2.531439         0.153558        -1.443139
 C        -2.172659        -0.836084        -2.549900
 C        -2.123097        -1.257788        -1.034054
 C        -0.692342        -1.315175        -0.472974
 C        -0.338288        -0.061639         0.381026
 O         0.276736        -0.259573         1.422965
 C        -0.949963         1.200981        -0.014622
 O        -1.373335         1.087437        -1.437721
 H        -3.534848         1.967486        -1.037776
 H        -4.531413         0.908052        -1.957969
 H        -4.390121         0.617970        -0.174966
 H        -2.931147        -1.372512        -3.113607
 H        -1.356760        -0.552054        -3.280990
 H        -2.934955        -1.952008        -0.717764
 H        -0.532072        -2.151144         0.197194
 H         0.014729        -1.416905        -1.257623
 H        -1.799456         1.299575         0.698963
 H        -0.266298         2.113575         0.038173
