19
Iteration:  3715charge 0 multiplicity 1
 C        -3.806092         1.079077        -1.414655
 C        -2.484058         0.210441        -1.471991
 C        -2.355274        -0.867916        -2.483917
 C        -2.070539        -1.276739        -1.065058
 C        -0.535899        -1.314955        -0.625867
 C        -0.334355        -0.201269         0.432968
 O         0.349458        -0.286016         1.477849
 C        -1.120601         1.057675         0.140668
 O        -1.387817         1.192740        -1.259479
 H        -4.698943         0.417269        -1.413923
 H        -3.855578         1.791848        -0.497006
 H        -3.924022         1.565406        -2.406932
 H        -3.336358        -1.323316        -2.745001
 H        -1.656873        -0.880093        -3.286753
 H        -2.639388        -1.938453        -0.406685
 H        -0.124552        -2.258502        -0.226213
 H        -0.015804        -1.228304        -1.581058
 H        -2.051558         1.147107         0.780261
 H        -0.410864         1.989345         0.315583
