19
Iteration:  3677
 C        -3.844672         0.866631        -1.158897
 C        -2.446679         0.314038        -1.549576
 C        -2.278449        -0.878302        -2.478382
 C        -2.077210        -1.183212        -1.041438
 C        -0.601353        -1.265932        -0.651417
 C        -0.371244        -0.150193         0.418752
 O         0.179973        -0.393271         1.513279
 C        -0.988134         1.176526         0.021443
 O        -1.311053         1.156431        -1.366554
 H        -4.487894         0.109276        -0.691150
 H        -3.769622         1.716431        -0.539229
 H        -4.355929         1.196677        -2.085502
 H        -3.173641        -1.324389        -2.954332
 H        -1.383137        -0.913766        -3.137137
 H        -2.973141        -1.710175        -0.725488
 H        -0.308882        -2.154075        -0.065083
 H         0.046942        -1.021589        -1.525356
 H        -1.782508         1.502457         0.623101
 H        -0.234950         1.857600         0.193679
