19
Iteration:   186charge 0 multiplicity 1
 C        -3.748707         0.885452        -0.882387
 C        -2.553607         0.013553        -1.413572
 C        -2.365639        -1.210634        -2.303592
 C        -1.892832        -1.284798        -0.893944
 C        -0.396997        -1.209552        -0.478838
 C        -0.375985         0.024583         0.342560
 O        -0.057869         0.046786         1.538727
 C        -0.896575         1.256838        -0.446666
 O        -1.487951         1.027288        -1.730042
 H        -4.667115         0.843537        -1.500732
 H        -3.949961         0.773658         0.190655
 H        -3.291304         1.935385        -0.961538
 H        -3.066007        -2.000492        -2.661026
 H        -1.578980        -1.064280        -3.035389
 H        -2.429038        -1.816466        -0.212816
 H        -0.266259        -1.979928         0.246319
 H         0.358432        -1.381631        -1.245414
 H        -1.475378         2.022816         0.135979
 H         0.029056         1.806061        -0.823119
