19
Iteration:  3472charge 0 multiplicity 1
 C        -3.684021         0.770121        -0.993378
 C        -2.391967         0.212413        -1.548908
 C        -2.531414        -0.835274        -2.547533
 C        -1.987529        -1.218646        -1.141231
 C        -0.637885        -1.288080        -0.571023
 C        -0.432178        -0.201078         0.486641
 O         0.094556        -0.135317         1.569110
 C        -0.913408         1.218516        -0.072506
 O        -1.237941         1.072984        -1.516598
 H        -3.747357         1.893088        -1.159839
 H        -4.609965         0.562404        -1.474757
 H        -3.842919         0.481049         0.110995
 H        -3.537903        -1.142835        -2.872902
 H        -1.801431        -0.841412        -3.338939
 H        -2.711353        -1.834488        -0.508739
 H        -0.330015        -2.324152        -0.329797
 H         0.072898        -0.938439        -1.290075
 H        -1.871799         1.253559         0.526776
 H        -0.197192         2.020074         0.311684
