19
Iteration:  1441charge 0 multiplicity 1
 C        -3.642950         0.855241        -0.872326
 C        -2.420806         0.132546        -1.427087
 C        -2.520540        -1.085273        -2.354909
 C        -1.983212        -1.248084        -0.969715
 C        -0.441213        -1.150295        -0.670294
 C        -0.399383        -0.028184         0.402946
 O        -0.388738        -0.218591         1.610141
 C        -0.536217         1.262522        -0.371535
 O        -1.349586         1.061633        -1.621802
 H        -3.611251         1.987356        -0.879287
 H        -4.645691         0.576706        -1.264337
 H        -3.759901         0.541959         0.162470
 H        -3.549870        -1.289526        -2.552276
 H        -1.720144        -1.273134        -3.095232
 H        -2.682325        -1.697332        -0.326719
 H        -0.001177        -2.101170        -0.365876
 H        -0.069824        -0.821426        -1.585870
 H        -1.085402         2.016836         0.178963
 H         0.436478         1.731330        -0.768518
