19
Iteration:  4904
 C        -3.841672         0.693016        -1.961683
 C        -2.503427         0.299888        -1.394754
 C        -1.713482        -0.729921        -2.313919
 C        -2.255759        -1.087118        -0.918444
 C        -1.231265        -1.378271         0.108046
 C        -0.290197        -0.223993         0.289366
 O         0.801481        -0.520967         0.786525
 C        -0.685837         1.226098        -0.065840
 O        -2.030784         1.401388        -0.698842
 H        -4.078761        -0.004051        -2.763463
 H        -4.743004         0.676294        -1.223058
 H        -3.758539         1.656405        -2.301017
 H        -2.225962        -1.010378        -3.243538
 H        -0.728047        -0.862135        -2.494149
 H        -3.036948        -1.830717        -1.081751
 H        -1.832996        -1.520797         1.077760
 H        -0.694012        -2.242161        -0.272241
 H        -0.834276         1.716864         0.888271
 H         0.042930         1.769396        -0.728237
