19
Iteration:  3838
 C        -4.063482         0.684307        -1.417639
 C        -2.503007         0.266251        -1.565989
 C        -1.944814        -0.635979        -2.627720
 C        -2.112704        -1.075002        -1.224465
 C        -1.095745        -1.435082        -0.151361
 C        -0.327318        -0.211509         0.466178
 O         0.612891        -0.346538         1.184647
 C        -0.792470         1.221280         0.110780
 O        -1.536911         1.193982        -1.095643
 H        -4.841353        -0.124051        -1.417829
 H        -4.056857         1.274888        -0.404757
 H        -4.409534         1.329416        -2.220131
 H        -2.733240        -1.168818        -3.194046
 H        -1.012983        -0.378751        -3.235877
 H        -2.937777        -1.725881        -1.096480
 H        -1.615453        -1.754549         0.767117
 H        -0.326094        -2.146119        -0.357413
 H        -1.251944         1.791556         0.853904
 H         0.237911         1.600892        -0.033869
