19
Iteration:  1024charge 0 multiplicity 1
 C        -3.943793         0.627970        -1.243423
 C        -2.488890         0.217802        -1.528575
 C        -2.119866        -0.809444        -2.566737
 C        -2.169641        -1.175519        -1.063536
 C        -1.040777        -1.483921        -0.111137
 C        -0.321526        -0.156862         0.462946
 O         0.583805        -0.021070         1.287099
 C        -0.843137         1.231501        -0.159076
 O        -1.453640         1.208992        -1.387444
 H        -4.186319         1.339238        -1.973637
 H        -4.520485        -0.240137        -1.433291
 H        -4.070842         0.951560        -0.207841
 H        -2.789148        -1.252506        -3.228610
 H        -1.053767        -0.787691        -2.830410
 H        -3.140003        -1.557694        -0.712398
 H        -1.418415        -2.148890         0.634341
 H        -0.297964        -2.081548        -0.589788
 H        -1.369192         1.671161         0.750365
 H         0.088396         1.722987        -0.133809
