19
Iteration:   716charge 0 multiplicity 1
 C        -3.877506         0.730721        -1.359865
 C        -2.445341         0.236307        -1.520084
 C        -2.221845        -1.000476        -2.402184
 C        -2.147276        -1.177101        -0.902417
 C        -0.769060        -1.235726        -0.324148
 C        -0.376833        -0.052853         0.488854
 O         0.621214        -0.021851         1.172222
 C        -1.197013         1.163211         0.040747
 O        -1.352578         1.009932        -1.406543
 H        -4.279701         1.134055        -2.322745
 H        -4.557241        -0.089454        -1.012275
 H        -3.984986         1.633563        -0.659820
 H        -3.081336        -1.387785        -3.007059
 H        -1.214874        -1.059066        -2.968615
 H        -2.884700        -1.623787        -0.243414
 H        -0.644988        -2.237800         0.112022
 H        -0.086585        -1.305867        -1.122583
 H        -2.170373         1.064747         0.607926
 H        -0.773043         2.127187         0.272187
