19
Iteration:  4668
 C        -4.065396         0.738718        -1.501138
 C        -2.587417         0.200837        -1.539236
 C        -1.654140        -0.470524        -2.461772
 C        -2.220565        -1.164453        -1.234049
 C        -1.222405        -1.426686        -0.020959
 C        -0.289846        -0.240656         0.380656
 O         0.583972        -0.315635         1.256947
 C        -0.506877         1.015598        -0.447314
 O        -1.856178         1.290321        -0.764245
 H        -4.856209         0.044062        -1.835484
 H        -4.195277         0.978807        -0.467897
 H        -3.951218         1.691822        -2.083123
 H        -1.942352        -0.863921        -3.378414
 H        -0.594017        -0.245275        -2.402628
 H        -2.853075        -2.013572        -1.200237
 H        -1.797680        -1.551186         0.931313
 H        -0.541976        -2.398851        -0.103190
 H        -0.148217         1.805736         0.160783
 H        -0.030596         1.154841        -1.440097
