19
Iteration:  1668charge 0 multiplicity 1
 C        -3.844733         0.766238        -1.518292
 C        -2.455890         0.246180        -1.485435
 C        -2.177444        -0.923190        -2.389336
 C        -2.210364        -1.121954        -0.894026
 C        -0.944675        -1.449989        -0.205626
 C        -0.273762        -0.173441         0.311259
 O         0.612558        -0.081361         1.132939
 C        -0.955311         1.073700         0.048911
 O        -1.468144         1.286183        -1.257727
 H        -3.961388         1.483998        -2.318734
 H        -4.514919         0.038573        -1.965677
 H        -4.229358         1.268004        -0.696326
 H        -3.036376        -1.301013        -2.949048
 H        -1.274617        -1.231291        -2.890026
 H        -3.162821        -1.540995        -0.500537
 H        -1.146015        -1.991630         0.759087
 H        -0.212514        -2.135578        -0.741431
 H        -1.892417         1.256188         0.752311
 H        -0.333435         1.906914         0.295844
