19
Iteration:  1958
 C        -3.863460         0.859233        -1.747588
 C        -2.533092         0.182529        -1.530839
 C        -1.964753        -0.885274        -2.447279
 C        -2.234268        -1.183203        -0.959353
 C        -1.183685        -1.434773         0.177944
 C        -0.300336        -0.150113         0.476006
 O         0.913251        -0.113534         0.698010
 C        -1.059530         1.191601         0.207984
 O        -1.591391         1.139455        -1.074989
 H        -3.643586         1.856571        -2.201211
 H        -4.499145         0.212193        -2.351538
 H        -4.369872         0.943379        -0.774665
 H        -2.649935        -1.224483        -3.244120
 H        -0.928340        -0.799541        -2.752202
 H        -3.093547        -1.809049        -0.764932
 H        -1.666393        -1.735056         1.189409
 H        -0.441190        -2.224480        -0.083529
 H        -1.742901         1.582053         0.992284
 H        -0.245514         1.855494         0.052017
