19
Iteration:  4049
 C        -4.011786         0.707207        -1.697155
 C        -2.619040         0.335683        -1.477099
 C        -1.928328        -0.659034        -2.460331
 C        -2.151650        -1.063225        -1.052362
 C        -1.087697        -1.478361        -0.074661
 C        -0.252949        -0.290170         0.401152
 O         0.736911        -0.357118         1.117739
 C        -0.720575         1.107191         0.026995
 O        -1.747734         1.333548        -1.028392
 H        -4.669475        -0.074285        -2.079987
 H        -4.419160         1.103399        -0.798539
 H        -4.017629         1.538508        -2.488149
 H        -2.458037        -1.019844        -3.366305
 H        -0.879890        -0.487047        -2.674187
 H        -3.037065        -1.841520        -1.045616
 H        -1.465733        -1.825066         0.901591
 H        -0.416299        -2.284546        -0.335483
 H        -1.069064         1.574367         0.951518
 H         0.058351         1.813867        -0.324280
