19
Iteration:  4747charge 0 multiplicity 1
 C        -3.961982         0.838979        -1.692646
 C        -2.576339         0.262931        -1.484513
 C        -1.870337        -0.711792        -2.427196
 C        -2.246180        -1.163741        -1.067561
 C        -1.071244        -1.350462        -0.130289
 C        -0.289337        -0.192108         0.366671
 O         0.604927        -0.396283         1.200273
 C        -0.541653         1.115315        -0.176640
 O        -1.879456         1.267668        -0.801886
 H        -4.577304         0.147977        -2.303272
 H        -4.343003         1.106383        -0.768184
 H        -3.891924         1.661434        -2.507191
 H        -2.460350        -1.105972        -3.334560
 H        -0.781455        -0.746133        -2.567308
 H        -3.097398        -1.799374        -0.896107
 H        -1.041214        -2.118661         0.706651
 H        -0.357715        -1.993029        -0.822316
 H        -0.413619         1.915315         0.613085
 H         0.214462         1.431062        -0.964582
