19
Iteration:  1156charge 0 multiplicity 1
 C        -3.590716         0.732763        -2.240030
 C        -2.440286         0.211639        -1.414199
 C        -1.767298        -1.009399        -2.085751
 C        -2.320805        -1.096315        -0.699725
 C        -1.305103        -1.318383         0.373837
 C        -0.300741        -0.196986         0.272599
 O         0.903815        -0.107086         0.023105
 C        -1.118221         1.082834         0.419323
 O        -1.844906         1.307139        -0.789022
 H        -3.247536         1.360769        -3.032816
 H        -4.297869        -0.016130        -2.560562
 H        -4.226380         1.381926        -1.695753
 H        -2.356865        -1.635973        -2.789905
 H        -0.679104        -0.943439        -2.102665
 H        -3.247744        -1.708091        -0.535483
 H        -1.681044        -1.032592         1.482449
 H        -0.872376        -2.335590         0.317603
 H        -1.692318         1.010967         1.325687
 H        -0.331890         1.882766         0.474273
