19
Iteration:  2856charge 0 multiplicity 1
 C        -3.659515         0.648014        -0.694454
 C        -2.436517         0.215864        -1.346962
 C        -2.408491        -0.972430        -2.383038
 C        -1.898642        -1.209185        -0.901466
 C        -0.379150        -1.212725        -0.668486
 C        -0.378119        -0.063821         0.336789
 O        -0.770415        -0.155321         1.465993
 C        -0.331905         1.227030        -0.529055
 O        -1.390970         1.147433        -1.536580
 H        -4.167653         1.412996        -1.345313
 H        -4.424410        -0.114081        -0.685592
 H        -3.463952         1.011026         0.350279
 H        -3.334257        -1.411747        -2.568966
 H        -1.640087        -0.902850        -3.085559
 H        -2.598234        -1.705363        -0.238582
 H        -0.053958        -2.126456        -0.087184
 H         0.050508        -1.128391        -1.685262
 H        -0.345986         2.158337         0.042811
 H         0.618468         1.371733        -1.166543
