19
Iteration:   597
 C        -3.870562         0.509493        -1.878927
 C        -2.519049         0.175947        -1.398425
 C        -1.870682        -0.886602        -2.325516
 C        -2.245588        -1.187588        -0.820327
 C        -1.152738        -1.335488         0.133640
 C        -0.220208        -0.153801         0.248654
 O         0.918210        -0.091154         0.692329
 C        -0.882364         1.222105         0.022157
 O        -1.892583         1.361444        -0.899434
 H        -3.951850         1.343180        -2.601795
 H        -4.383871        -0.351736        -2.350769
 H        -4.621333         0.837746        -1.104755
 H        -2.654367        -1.123390        -3.135211
 H        -0.818948        -1.091154        -2.539764
 H        -3.145798        -1.738044        -0.627897
 H        -1.631372        -1.456040         1.199762
 H        -0.523399        -2.314432         0.082778
 H        -1.236896         1.562928         1.007386
 H        -0.113859         1.920479        -0.233677
