19
Iteration:   271charge 0 multiplicity 1
 C        -3.920991         0.797056        -1.334651
 C        -2.598740         0.054239        -1.464892
 C        -2.186872        -1.108623        -2.384998
 C        -2.112455        -1.251290        -0.866741
 C        -0.685694        -1.351106        -0.204952
 C        -0.190307        -0.037049         0.399441
 O         0.505737         0.043033         1.376423
 C        -0.903171         1.295424        -0.262640
 O        -1.662446         1.105132        -1.501387
 H        -4.556551         0.488847        -0.479506
 H        -3.667640         1.830096        -1.100114
 H        -4.489429         0.824744        -2.275310
 H        -2.996405        -1.685646        -2.819358
 H        -1.323029        -0.776995        -2.842973
 H        -2.796304        -1.923031        -0.445167
 H        -0.760994        -2.077691         0.578581
 H         0.136445        -1.629338        -0.956722
 H        -1.541941         1.766363         0.501841
 H        -0.133414         2.060294        -0.569273
