19
Iteration:  2274
 C        -3.773784         0.761064        -1.003218
 C        -2.449845         0.171663        -1.436295
 C        -2.322552        -0.977983        -2.441414
 C        -2.078023        -1.200105        -0.986443
 C        -0.584916        -1.305674        -0.548799
 C        -0.354161        -0.064628         0.353565
 O        -0.042974        -0.055176         1.543427
 C        -0.778806         1.233205        -0.254889
 O        -1.342426         1.069561        -1.528885
 H        -4.301761         1.372564        -1.751006
 H        -4.458503        -0.075776        -0.864868
 H        -3.662438         1.284556        -0.014553
 H        -3.217611        -1.368624        -2.908429
 H        -1.475817        -0.830471        -3.035170
 H        -2.716414        -1.885139        -0.402002
 H        -0.413762        -2.210720         0.078098
 H         0.010293        -1.537257        -1.469563
 H        -1.471419         1.807076         0.416461
 H         0.156047         1.836635        -0.311273
