19
Iteration:  3098
 C        -3.794118         0.792929        -1.691163
 C        -2.354811         0.180115        -1.516776
 C        -1.759679        -0.963878        -2.357308
 C        -2.286303        -1.149443        -0.984959
 C        -1.308799        -1.376297         0.249140
 C        -0.429801        -0.122714         0.451123
 O         0.811894        -0.020763         0.316189
 C        -1.213181         1.146981         0.366921
 O        -1.430472         1.142272        -1.013088
 H        -3.710660         1.870632        -1.915022
 H        -4.635674         0.448369        -2.406199
 H        -4.341616         0.660703        -0.715427
 H        -2.421600        -1.235067        -3.169468
 H        -0.700687        -1.113808        -2.552001
 H        -3.072487        -1.839165        -0.911814
 H        -1.947065        -1.510168         1.190963
 H        -0.726819        -2.292813         0.044767
 H        -2.170714         1.118294         0.930724
 H        -0.408382         1.894421         0.590490
