19
Iteration:    15charge 0 multiplicity 1
 C        -3.985282         0.618507        -1.152536
 C        -2.537223         0.167225        -1.544141
 C        -2.326141        -1.204172        -2.343688
 C        -2.104118        -1.075719        -0.826969
 C        -0.618166        -1.236261        -0.407915
 C        -0.277309        -0.053622         0.436778
 O         0.268336        -0.006520         1.525068
 C        -0.708581         1.248594        -0.320195
 O        -1.493585         1.136936        -1.602040
 H        -4.088119         0.841624        -0.131821
 H        -4.217390         1.527416        -1.644578
 H        -4.681056        -0.222691        -1.449489
 H        -3.171108        -1.733297        -2.805115
 H        -1.343145        -1.131818        -2.907570
 H        -2.812145        -1.359879        -0.121546
 H        -0.304947        -2.206561        -0.025249
 H        -0.066516        -1.015433        -1.366089
 H        -1.159064         1.964446         0.413261
 H         0.308749         1.710286        -0.664073
