19
Iteration:  3321
 C        -4.006007         0.697987        -1.616703
 C        -2.566301         0.283572        -1.470480
 C        -1.798164        -0.562525        -2.381860
 C        -2.156049        -1.243747        -1.031921
 C        -1.085694        -1.622183        -0.021675
 C        -0.320002        -0.292845         0.349717
 O         0.650696        -0.190626         1.079175
 C        -0.678381         1.113528        -0.243675
 O        -1.861854         1.410973        -0.923417
 H        -4.036845         1.634846        -2.264943
 H        -4.775936         0.007297        -1.903773
 H        -4.200359         1.200298        -0.614678
 H        -2.304254        -1.008815        -3.210353
 H        -0.736088        -0.274349        -2.555616
 H        -2.834209        -2.160318        -1.122219
 H        -1.484899        -2.152678         0.902849
 H        -0.323613        -2.366275        -0.489783
 H        -0.606131         1.656020         0.729277
 H         0.184728         1.492115        -0.793709
