19
Iteration:  4476charge 0 multiplicity 1
 C        -3.889246         0.643782        -1.918441
 C        -2.409871         0.275793        -1.425093
 C        -1.428424        -0.559676        -2.219759
 C        -2.260827        -1.133803        -0.950027
 C        -1.416561        -1.351542         0.258081
 C        -0.405604        -0.273190         0.294714
 O         0.779798        -0.456902         0.506405
 C        -0.772034         1.139754        -0.088896
 O        -2.001539         1.388698        -0.640942
 H        -4.455331        -0.266810        -2.289201
 H        -4.432844         1.095991        -1.089401
 H        -3.775134         1.392896        -2.727942
 H        -1.698126        -1.010148        -3.183696
 H        -0.271493        -0.384983        -2.069947
 H        -3.029560        -1.833323        -1.152862
 H        -2.068754        -1.589575         1.131435
 H        -0.928868        -2.313795         0.228438
 H        -0.641331         1.739470         0.876238
 H         0.017802         1.401524        -0.813349
