19
Iteration:  4239
 C        -3.985011         0.659242        -1.849586
 C        -2.602642         0.326946        -1.405983
 C        -1.887391        -0.610793        -2.420499
 C        -2.225583        -1.101196        -1.030881
 C        -1.094315        -1.470378         0.013296
 C        -0.275603        -0.245526         0.464890
 O         0.796471        -0.397494         1.087935
 C        -0.630662         1.109462        -0.064902
 O        -1.885779         1.404229        -0.970330
 H        -4.452477         0.031064        -2.664590
 H        -4.800702         0.590764        -1.032776
 H        -4.109777         1.678424        -2.159604
 H        -2.507601        -0.832257        -3.358251
 H        -0.816155        -0.577975        -2.536403
 H        -3.050785        -1.730960        -0.950820
 H        -1.585630        -2.015698         0.805034
 H        -0.375350        -2.297952        -0.356461
 H        -0.580336         1.772090         0.779885
 H         0.306758         1.298401        -0.708214
