19
Iteration:  3071charge 0 multiplicity 1
 C        -3.806130         0.797993        -1.586902
 C        -2.407932         0.204212        -1.528481
 C        -1.923732        -0.880766        -2.421908
 C        -2.214577        -1.131996        -0.961608
 C        -1.179043        -1.429384         0.228331
 C        -0.355164        -0.091268         0.383850
 O         0.836072        -0.090362         0.599293
 C        -1.315460         1.123568         0.269885
 O        -1.380888         1.131289        -1.196006
 H        -3.797267         1.483328        -2.457879
 H        -4.601710         0.162524        -1.816403
 H        -4.183835         1.209085        -0.613709
 H        -2.603174        -1.183545        -3.219555
 H        -0.843255        -0.722324        -2.655181
 H        -3.187405        -1.723428        -0.749107
 H        -1.791316        -1.434972         1.119927
 H        -0.614840        -2.364706         0.092067
 H        -2.275680         0.911461         0.732675
 H        -0.748566         1.934213         0.658392
