19
Iteration:  4921
 C        -3.749846         0.596575        -2.040390
 C        -2.454600         0.302316        -1.406130
 C        -1.768993        -0.681965        -2.287571
 C        -2.442567        -1.186788        -0.966188
 C        -1.286173        -1.374001         0.062258
 C        -0.305981        -0.245148         0.227411
 O         0.832935        -0.394129         0.726468
 C        -0.713673         1.218610         0.015713
 O        -1.922268         1.381548        -0.576290
 H        -4.223264        -0.243810        -2.556436
 H        -4.467665         0.925125        -1.328055
 H        -3.748763         1.602710        -2.706875
 H        -2.253156        -0.932961        -3.264410
 H        -0.590298        -0.695856        -2.298633
 H        -3.451265        -1.593183        -0.788700
 H        -1.725790        -1.571403         1.027151
 H        -0.648165        -2.291843        -0.015262
 H        -0.723530         1.803942         0.981844
 H         0.105999         1.674507        -0.543581
