19
Iteration:  3215
 C        -3.873642         0.695332        -2.000557
 C        -2.530343         0.222696        -1.386890
 C        -1.551853        -0.654048        -2.233782
 C        -2.150116        -1.177635        -0.995879
 C        -1.346152        -1.371916         0.312569
 C        -0.344926        -0.180682         0.354550
 O         0.856346        -0.393425         0.453230
 C        -0.740674         1.218984        -0.033223
 O        -2.086949         1.288842        -0.638478
 H        -3.702306         1.558409        -2.656541
 H        -4.522941        -0.061773        -2.413991
 H        -4.371800         0.971358        -1.070959
 H        -1.896161        -1.058291        -3.149989
 H        -0.450334        -0.558848        -2.234410
 H        -3.031017        -1.944208        -1.022604
 H        -1.982213        -1.318769         1.199542
 H        -0.848114        -2.304252         0.242810
 H        -0.903535         1.849834         0.840842
 H         0.030889         1.536891        -0.809006
