19
Iteration:  1318
 C        -4.046897         0.758486        -1.747127
 C        -2.611696         0.274410        -1.406799
 C        -2.036309        -0.854961        -2.344830
 C        -2.246507        -1.127961        -0.853709
 C        -0.969860        -1.476627        -0.066976
 C        -0.141613        -0.196959         0.267017
 O         0.673796        -0.146593         1.197863
 C        -0.749494         1.078953        -0.107067
 O        -1.633020         1.283882        -1.174784
 H        -3.954505         1.434703        -2.622149
 H        -4.836748        -0.036039        -1.865516
 H        -4.343307         1.518282        -0.949213
 H        -2.734994        -1.362369        -3.025693
 H        -1.050454        -0.579509        -2.796241
 H        -3.086354        -1.859893        -0.647630
 H        -1.129276        -1.789206         0.929153
 H        -0.345863        -2.203922        -0.507018
 H        -1.355176         1.398747         0.782018
 H         0.005262         1.853968        -0.386678
