19
Iteration:  1766
 C        -3.933616         0.571487        -1.753956
 C        -2.478528         0.286554        -1.567446
 C        -1.758082        -0.838576        -2.291290
 C        -2.213317        -1.039965        -0.867322
 C        -1.317066        -1.323849         0.305901
 C        -0.298364        -0.208116         0.312787
 O         0.848431        -0.381860         0.617428
 C        -0.894945         1.224630         0.108584
 O        -1.695021         1.394214        -1.074074
 H        -4.092879         1.506931        -2.313490
 H        -4.508493        -0.229375        -2.301017
 H        -4.590190         0.721902        -0.838201
 H        -2.134216        -1.514555        -3.021749
 H        -0.701503        -0.750974        -2.536447
 H        -3.109651        -1.723005        -0.923736
 H        -1.940433        -1.291189         1.226772
 H        -0.827146        -2.355798         0.216018
 H        -1.468596         1.414386         1.018934
 H        -0.155346         1.995872        -0.039698
