19
Iteration:  1214
 C        -3.760174         0.671675        -1.947322
 C        -2.404323         0.257351        -1.482830
 C        -1.481984        -0.854730        -2.074552
 C        -2.181101        -1.105142        -0.759786
 C        -1.387706        -1.327777         0.548733
 C        -0.452030        -0.187318         0.300703
 O         0.705140        -0.332118        -0.063888
 C        -1.162428         1.085675         0.341875
 O        -1.644212         1.409053        -0.978151
 H        -3.750682         1.423713        -2.793975
 H        -4.325014        -0.187015        -2.376998
 H        -4.319551         0.978104        -1.062558
 H        -1.953534        -1.299554        -2.968309
 H        -0.387837        -0.730961        -2.131418
 H        -3.083617        -1.657245        -0.759034
 H        -1.866707        -1.152754         1.552001
 H        -0.695921        -2.242932         0.579313
 H        -1.995308         1.294867         1.015580
 H        -0.446958         1.900919         0.627224
