19
Iteration:  3973charge 0 multiplicity 1
 C        -3.759319         0.937883        -1.450454
 C        -2.484030         0.287473        -1.645136
 C        -1.925227        -0.787803        -2.494100
 C        -2.192038        -1.212482        -1.026958
 C        -1.134169        -1.568004        -0.098721
 C        -0.374385        -0.195594         0.467989
 O         0.773411        -0.167523         0.888032
 C        -1.217664         1.031126         0.220309
 O        -1.471280         1.245988        -1.142346
 H        -4.672562         0.302500        -1.637704
 H        -3.768429         1.179949        -0.387392
 H        -3.898803         1.968837        -2.066822
 H        -2.460478        -1.134798        -3.333204
 H        -0.833072        -0.618312        -2.777432
 H        -3.297267        -1.342707        -0.645280
 H        -1.398853        -2.228168         0.735787
 H        -0.352863        -2.186446        -0.592523
 H        -2.176416         0.966889         0.637907
 H        -0.731627         1.956772         0.611314
