19
Iteration:   703charge 0 multiplicity 1
 C        -3.784593         0.770995        -1.332303
 C        -2.461161         0.085504        -1.597969
 C        -2.282914        -1.064340        -2.530080
 C        -2.151926        -1.214804        -1.000109
 C        -0.811240        -1.313308        -0.210377
 C        -0.368573         0.014460         0.485114
 O         0.669280         0.022251         1.111889
 C        -1.217071         1.183364         0.121991
 O        -1.351679         1.116441        -1.320350
 H        -4.195591         1.298932        -2.254340
 H        -4.513078        -0.026313        -1.051984
 H        -3.721104         1.436713        -0.493274
 H        -3.275778        -1.358525        -2.926729
 H        -1.459417        -1.094276        -3.227157
 H        -3.012102        -1.751605        -0.628773
 H        -0.825051        -1.940934         0.638914
 H         0.048195        -1.516933        -0.775421
 H        -2.233376         1.117442         0.564579
 H        -0.760105         2.110158         0.407871
