19
Iteration:  2181
 C        -3.697648         0.747215        -0.886036
 C        -2.400683         0.122866        -1.384559
 C        -2.448606        -1.059721        -2.353934
 C        -1.939262        -1.242876        -0.981515
 C        -0.472970        -1.259728        -0.620516
 C        -0.504658        -0.005750         0.299334
 O        -0.356326        -0.160371         1.507071
 C        -0.576290         1.339262        -0.361020
 O        -1.350425         1.142889        -1.530628
 H        -3.843888         1.703064        -1.313467
 H        -4.599684         0.159860        -1.121644
 H        -3.573534         0.775470         0.177011
 H        -3.487161        -1.346003        -2.735810
 H        -1.729049        -1.206463        -3.168289
 H        -2.504921        -1.711665        -0.211304
 H        -0.302510        -2.079592         0.123282
 H         0.310032        -1.360314        -1.438988
 H        -0.805417         2.086085         0.372251
 H         0.487365         1.595537        -0.689105
