19
Iteration:  2018charge 0 multiplicity 1
 C        -3.831175         0.763268        -1.593217
 C        -2.500726         0.179637        -1.573944
 C        -2.199968        -1.045982        -2.474972
 C        -2.244155        -1.057477        -0.927344
 C        -0.985490        -1.257500        -0.146384
 C        -0.299920        -0.104464         0.488208
 O         0.743038        -0.175145         1.083376
 C        -0.965784         1.190455         0.127421
 O        -1.508908         1.147462        -1.201668
 H        -3.938649         1.518338        -2.366221
 H        -4.621443         0.057751        -1.936637
 H        -4.146498         1.175752        -0.648681
 H        -3.070394        -1.366977        -3.046061
 H        -1.236286        -1.151360        -3.069585
 H        -3.098088        -1.573097        -0.506616
 H        -1.149218        -2.067278         0.646947
 H        -0.197647        -1.651842        -0.860239
 H        -1.637720         1.512333         0.980815
 H        -0.125384         2.006486         0.063571
