19
Iteration:  2647charge 0 multiplicity 1
 C        -3.901268         0.703641        -1.641161
 C        -2.519213         0.268324        -1.507599
 C        -1.935448        -0.871046        -2.438721
 C        -2.205475        -1.100813        -1.005164
 C        -1.109966        -1.473039         0.113563
 C        -0.255776        -0.171386         0.390086
 O         0.862570        -0.149255         0.844900
 C        -1.027322         1.078184         0.169727
 O        -1.655229         1.356510        -1.150421
 H        -3.977911         1.252349        -2.604342
 H        -4.567739        -0.155095        -1.838979
 H        -4.222499         1.273341        -0.767608
 H        -2.553967        -1.434359        -3.183794
 H        -0.794871        -0.754104        -2.671616
 H        -3.187087        -1.559669        -0.672655
 H        -1.763384        -1.861793         0.868753
 H        -0.371025        -2.297570        -0.259539
 H        -1.863326         1.089493         0.867131
 H        -0.361206         1.967484         0.335537
