19
Iteration:  4109
 C        -4.019915         0.695322        -1.758617
 C        -2.555617         0.308550        -1.510507
 C        -1.900755        -0.673720        -2.456394
 C        -2.218188        -1.099070        -1.115904
 C        -1.093023        -1.373855        -0.016795
 C        -0.301955        -0.235047         0.473986
 O         0.683493        -0.359273         1.147964
 C        -0.551644         1.070816        -0.190738
 O        -1.879982         1.323757        -0.788137
 H        -4.466202        -0.043997        -2.479938
 H        -4.564241         0.764789        -0.714589
 H        -3.888600         1.681419        -2.173730
 H        -2.482793        -0.874221        -3.314891
 H        -0.818755        -0.473093        -2.683527
 H        -2.891473        -1.836774        -0.955414
 H        -1.457688        -2.075565         0.763502
 H        -0.262652        -1.862620        -0.642350
 H        -0.420063         1.877452         0.544677
 H         0.265449         1.128428        -1.018784
