19
Iteration:   102charge 0 multiplicity 1
 C        -3.742096         0.592970        -0.746388
 C        -2.492132         0.066291        -1.335215
 C        -2.341866        -1.064386        -2.369032
 C        -1.911772        -1.245872        -0.937495
 C        -0.437647        -1.290673        -0.384125
 C        -0.431855         0.037554         0.313718
 O        -0.310583         0.188884         1.526048
 C        -0.476078         1.195933        -0.680310
 O        -1.576225         1.090930        -1.656920
 H        -4.644145         0.101620        -0.973257
 H        -3.649073         0.700790         0.331266
 H        -3.827278         1.673291        -1.062338
 H        -3.200941        -1.638398        -2.884407
 H        -1.520506        -0.774232        -3.069577
 H        -2.588744        -1.806423        -0.282780
 H        -0.440173        -2.019465         0.447373
 H         0.370276        -1.506824        -1.102436
 H        -0.564711         2.173950        -0.172555
 H         0.411931         1.156631        -1.314125
