19
Iteration:  2311
 C        -3.862973         0.759233        -1.303739
 C        -2.531154         0.180051        -1.487445
 C        -2.420470        -1.002280        -2.478468
 C        -2.101381        -1.169722        -0.935104
 C        -0.667340        -1.231052        -0.460874
 C        -0.268258        -0.066646         0.500328
 O         0.354268        -0.169656         1.577052
 C        -0.861542         1.281563        -0.169119
 O        -1.398056         1.051292        -1.504371
 H        -3.938047         1.852822        -1.458503
 H        -4.568729         0.099182        -1.907188
 H        -4.208745         0.561755        -0.258447
 H        -3.361560        -1.423007        -2.857296
 H        -1.580062        -0.971225        -3.266070
 H        -2.868783        -1.697059        -0.390292
 H        -0.642013        -2.083855         0.216792
 H         0.114439        -1.148318        -1.150073
 H        -1.584108         1.902466         0.427773
 H         0.084920         1.815213        -0.340158
