19
Iteration:  1686
 C        -3.925747         0.769422        -1.489509
 C        -2.471406         0.263638        -1.553449
 C        -1.970725        -0.886508        -2.444045
 C        -2.252077        -1.171820        -0.963009
 C        -1.061562        -1.507338         0.014427
 C        -0.284209        -0.221782         0.401527
 O         0.733691        -0.155822         1.068802
 C        -0.967941         1.194053        -0.005710
 O        -1.578026         1.321104        -1.304748
 H        -4.316463         1.483956        -2.234669
 H        -4.652769        -0.061004        -1.406288
 H        -3.836317         1.403318        -0.511830
 H        -2.612007        -1.337932        -3.275312
 H        -0.930734        -0.620061        -2.684610
 H        -3.159966        -1.687692        -0.747849
 H        -1.430514        -2.082101         0.838958
 H        -0.374092        -2.229259        -0.501925
 H        -1.596883         1.307897         0.845730
 H        -0.180854         1.940057         0.082170
