19
Iteration:  2758
 C        -3.826311         0.719950        -1.063679
 C        -2.480867         0.215683        -1.540186
 C        -2.381658        -0.905657        -2.523300
 C        -2.072191        -1.231204        -1.017143
 C        -0.670335        -1.287179        -0.355205
 C        -0.435337        -0.070275         0.492886
 O         0.260969        -0.138994         1.452285
 C        -0.850079         1.257882        -0.220625
 O        -1.330172         1.038169        -1.532947
 H        -4.287123         1.392618        -1.851954
 H        -4.496817        -0.081151        -0.836210
 H        -3.727714         1.439448        -0.234284
 H        -3.298013        -1.278223        -2.925513
 H        -1.543272        -0.778763        -3.118239
 H        -2.850279        -1.584978        -0.395939
 H        -0.657661        -2.232193         0.218182
 H         0.298615        -1.269470        -0.986029
 H        -1.590063         1.713357         0.391234
 H         0.046684         1.927914        -0.087668
