19
Iteration:  3630
 C        -3.868198         0.719372        -1.023011
 C        -2.510159         0.218774        -1.477183
 C        -2.285491        -0.674134        -2.652119
 C        -2.007216        -1.233010        -1.263177
 C        -0.665758        -1.414893        -0.490101
 C        -0.352225        -0.217485         0.434746
 O        -0.000285        -0.197816         1.610241
 C        -0.592338         1.182770        -0.178523
 O        -1.485942         1.226742        -1.330346
 H        -4.432981        -0.198619        -1.138054
 H        -3.742127         0.936406         0.102805
 H        -4.318895         1.519875        -1.553292
 H        -3.177781        -0.967896        -3.276971
 H        -1.350850        -0.384304        -3.148730
 H        -2.745490        -1.924408        -0.824032
 H        -0.728692        -2.240133         0.220299
 H         0.225916        -1.433085        -1.129386
 H        -0.821472         1.788336         0.703926
 H         0.418115         1.496618        -0.476267
