19
Iteration:  2499charge 0 multiplicity 1
 C        -3.705233         0.779389        -2.063705
 C        -2.447115         0.203332        -1.429240
 C        -2.008065        -0.954333        -2.312634
 C        -2.231687        -1.217618        -0.829923
 C        -1.130958        -1.442962         0.274244
 C        -0.293840        -0.086655         0.349695
 O         0.961974        -0.185671         0.368609
 C        -1.135766         1.143368         0.359553
 O        -1.768795         1.335052        -0.887337
 H        -3.528392         1.808986        -2.530337
 H        -4.134800         0.044192        -2.759814
 H        -4.511009         0.948770        -1.292174
 H        -2.709867        -1.254415        -3.016811
 H        -0.967046        -0.952955        -2.636074
 H        -3.142604        -1.813773        -0.683283
 H        -1.580001        -1.220909         1.298969
 H        -0.552643        -2.313167         0.266243
 H        -1.869731         1.242428         1.147394
 H        -0.463598         2.060909         0.478414
