19
Iteration:  1062charge 0 multiplicity 1
 C        -3.947160         0.668495        -1.446099
 C        -2.549216         0.105518        -1.469128
 C        -1.833116        -0.846616        -2.526628
 C        -2.055965        -1.192684        -1.062266
 C        -1.227294        -1.196859         0.156715
 C        -0.294742        -0.102504         0.323954
 O         0.749950        -0.305736         0.945180
 C        -0.882712         1.242455        -0.020182
 O        -1.669563         1.225624        -1.201007
 H        -4.037890         1.673307        -2.050772
 H        -4.817760        -0.043969        -1.686216
 H        -4.229541         1.088739        -0.433276
 H        -2.359216        -1.607822        -3.172202
 H        -0.831094        -0.533009        -2.913773
 H        -2.895527        -1.855243        -0.840831
 H        -1.957350        -1.031297         0.978707
 H        -0.629653        -2.148782         0.309659
 H        -1.677867         1.492085         0.678931
 H        -0.169292         2.140716        -0.104190
