19
Iteration:  2899
 C        -3.492964         0.809498        -0.629520
 C        -2.394635         0.117453        -1.420245
 C        -2.492529        -0.924975        -2.453530
 C        -1.871935        -1.282346        -1.096741
 C        -0.420866        -1.300744        -0.580755
 C        -0.415626        -0.004095         0.375478
 O        -0.542182        -0.102390         1.586593
 C        -0.736698         1.271663        -0.430073
 O        -1.309776         0.996786        -1.707741
 H        -3.579008         1.924821        -0.655236
 H        -4.435779         0.373516        -0.930819
 H        -3.324674         0.554738         0.439004
 H        -3.452794        -1.334849        -2.569426
 H        -1.806007        -0.662443        -3.215332
 H        -2.559445        -1.855463        -0.448148
 H        -0.286241        -2.238139        -0.003502
 H         0.410355        -1.211985        -1.296686
 H        -1.391491         1.960256         0.128300
 H         0.120890         1.965882        -0.535015
