19
Iteration:  4827
 C        -3.947837         0.600231        -1.665981
 C        -2.529209         0.290673        -1.443519
 C        -1.656921        -0.573994        -2.502848
 C        -2.187978        -1.157037        -1.179862
 C        -1.332252        -1.199192         0.081921
 C        -0.234370        -0.153848         0.365469
 O         0.644784        -0.572891         1.139510
 C        -0.547521         1.166046        -0.481653
 O        -1.920242         1.302682        -0.581290
 H        -4.321185        -0.268542        -2.160211
 H        -4.537825         0.631742        -0.693451
 H        -4.243477         1.439479        -2.190406
 H        -2.224777        -0.695875        -3.398608
 H        -0.590964        -0.433538        -2.683207
 H        -3.075289        -1.789599        -1.404011
 H        -1.986959        -1.170631         1.051294
 H        -0.925078        -2.242503         0.108666
 H        -0.192473         2.070516         0.039873
 H        -0.078390         1.135029        -1.497200
