19
Iteration:  3399charge 0 multiplicity 1
 C        -3.966913         0.686904        -1.347013
 C        -2.512213         0.274378        -1.491579
 C        -2.155998        -0.754496        -2.489452
 C        -2.147977        -1.137898        -0.956841
 C        -0.755176        -1.455527        -0.411306
 C        -0.337342        -0.192078         0.433005
 O         0.425736        -0.256976         1.378570
 C        -0.784860         1.180298        -0.037828
 O        -1.526472         1.277046        -1.347964
 H        -3.946144         1.782149        -1.278183
 H        -4.568930         0.569705        -2.265409
 H        -4.551274         0.264328        -0.505936
 H        -3.009968        -1.215182        -3.022663
 H        -1.265546        -0.550467        -3.003255
 H        -3.001093        -1.691990        -0.517840
 H        -0.869256        -2.306893         0.319049
 H         0.057798        -1.750839        -1.174088
 H        -1.236114         1.613943         0.888897
 H         0.114547         1.778035        -0.154235
