19
Iteration:  1000
 C        -3.852930         0.765343        -1.325170
 C        -2.477592         0.192075        -1.508012
 C        -2.337473        -0.933572        -2.479016
 C        -2.142191        -1.206516        -0.966404
 C        -0.723813        -1.353938        -0.322669
 C        -0.367423        -0.150657         0.410577
 O         0.365835        -0.078938         1.417414
 C        -0.817398         1.231471        -0.134942
 O        -1.424846         1.154926        -1.404578
 H        -4.058779         1.544967        -1.995254
 H        -4.509805        -0.059418        -1.398493
 H        -3.876841         1.106581        -0.299149
 H        -3.325298        -1.284635        -2.805477
 H        -1.501984        -0.940212        -3.208576
 H        -2.956730        -1.702280        -0.470971
 H        -0.672536        -2.208778         0.417500
 H         0.066366        -1.579725        -1.034761
 H        -1.501372         1.628039         0.670236
 H         0.093882         1.784334        -0.013271
