19
Iteration:  3323
 C        -4.004487         0.706506        -1.606184
 C        -2.576725         0.291471        -1.465544
 C        -1.793519        -0.567376        -2.383062
 C        -2.146490        -1.253274        -1.021042
 C        -1.075312        -1.616431        -0.039196
 C        -0.335244        -0.287866         0.352516
 O         0.648865        -0.197831         1.087297
 C        -0.677113         1.117058        -0.254700
 O        -1.853885         1.402133        -0.932092
 H        -3.992975         1.595334        -2.248084
 H        -4.798473         0.074710        -1.936649
 H        -4.220042         1.115952        -0.613452
 H        -2.339572        -1.009116        -3.179510
 H        -0.768785        -0.294827        -2.560508
 H        -2.840976        -2.145320        -1.128928
 H        -1.447320        -2.122727         0.886425
 H        -0.354533        -2.310113        -0.488899
 H        -0.667846         1.660459         0.679684
 H         0.195159         1.524225        -0.716929
