19
Iteration:   612
 C        -3.899333         0.396363        -1.768008
 C        -2.406568         0.210763        -1.477055
 C        -2.019512        -0.919409        -2.366218
 C        -2.286672        -1.148677        -0.877981
 C        -1.071811        -1.342401         0.142586
 C        -0.250200        -0.057190         0.259479
 O         0.866529        -0.175904         0.762753
 C        -0.869937         1.288958         0.132252
 O        -1.805770         1.408590        -1.044176
 H        -3.968720         1.310818        -2.316033
 H        -4.243941        -0.357570        -2.442654
 H        -4.438025         0.292829        -0.830777
 H        -2.699079        -1.290549        -3.088145
 H        -0.993167        -0.895199        -2.801577
 H        -3.244426        -1.679902        -0.571786
 H        -1.522605        -1.337072         1.095190
 H        -0.507134        -2.304812        -0.034991
 H        -1.451727         1.362118         1.057428
 H        -0.060023         2.080779         0.048821
