19
Iteration:  3412charge 0 multiplicity 1
 C        -3.938496         0.849630        -1.252708
 C        -2.517937         0.245520        -1.415819
 C        -2.146879        -0.795663        -2.435830
 C        -2.105183        -1.198096        -1.043277
 C        -0.745908        -1.375955        -0.393226
 C        -0.288910        -0.195280         0.349155
 O         0.334032        -0.270467         1.384106
 C        -0.888739         1.209308        -0.111536
 O        -1.466389         1.164310        -1.350964
 H        -3.972239         1.878761        -1.036969
 H        -4.539790         0.521127        -2.144622
 H        -4.385213         0.351517        -0.435616
 H        -2.863604        -1.093265        -3.246404
 H        -1.069373        -0.712056        -2.669813
 H        -2.860851        -1.829019        -0.654040
 H        -0.614015        -2.258827         0.243641
 H        -0.009076        -1.484879        -1.235595
 H        -1.688647         1.517907         0.554126
 H        -0.109982         1.962143        -0.102072
