19
Iteration:  4924charge 0 multiplicity 1
 C        -3.750694         0.609072        -2.052339
 C        -2.451623         0.306717        -1.415794
 C        -1.764403        -0.688453        -2.286162
 C        -2.463423        -1.193273        -0.954266
 C        -1.279689        -1.372536         0.075510
 C        -0.298054        -0.252932         0.231442
 O         0.834610        -0.374783         0.712539
 C        -0.708151         1.200742         0.039658
 O        -1.918744         1.376917        -0.572343
 H        -4.210008        -0.271051        -2.492855
 H        -4.516111         1.005896        -1.284845
 H        -3.728483         1.490471        -2.732271
 H        -2.125396        -0.873096        -3.334258
 H        -0.736916        -0.663352        -2.304813
 H        -3.451212        -1.651952        -0.892806
 H        -1.793995        -1.489337         1.030033
 H        -0.651344        -2.284343        -0.084244
 H        -0.755556         1.789422         0.979426
 H         0.091539         1.632423        -0.610466
