19
Iteration:  3664charge 0 multiplicity 1
 C        -3.919718         0.754052        -1.136358
 C        -2.486929         0.293481        -1.496407
 C        -2.319233        -0.795440        -2.553127
 C        -2.088890        -1.160975        -1.131877
 C        -0.598215        -1.252078        -0.510746
 C        -0.439549        -0.189489         0.498440
 O         0.149410        -0.420124         1.500795
 C        -0.833537         1.299838        -0.004738
 O        -1.253491         1.134074        -1.451587
 H        -4.389455        -0.113676        -0.665537
 H        -3.938047         1.523420        -0.312955
 H        -4.510713         1.145990        -1.933770
 H        -3.198882        -1.095080        -3.246462
 H        -1.350404        -0.671630        -3.075739
 H        -2.641330        -1.813766        -0.414120
 H        -0.387115        -2.275130        -0.168820
 H         0.155807        -1.161438        -1.298501
 H        -1.656762         1.707916         0.573409
 H        -0.001051         1.960840        -0.063685
