19
Iteration:  4483
 C        -3.897880         0.607269        -1.893270
 C        -2.471920         0.300765        -1.432115
 C        -1.475395        -0.540301        -2.167743
 C        -2.202968        -1.117074        -0.963264
 C        -1.414292        -1.373707         0.277184
 C        -0.393228        -0.280379         0.255505
 O         0.763621        -0.458122         0.547933
 C        -0.746178         1.138701        -0.101921
 O        -1.940171         1.339802        -0.692033
 H        -4.584423        -0.070825        -2.365837
 H        -4.426595         1.204611        -1.171115
 H        -3.883736         1.383865        -2.777600
 H        -1.682883        -0.823047        -3.177547
 H        -0.497666        -0.261721        -2.160502
 H        -2.974880        -1.842773        -1.283241
 H        -1.975374        -1.515833         1.237749
 H        -0.949735        -2.376464         0.194756
 H        -0.953689         1.730795         0.832266
 H         0.157916         1.667816        -0.551001
