19
Iteration:  3078charge 0 multiplicity 1
 C        -3.762933         0.817643        -1.580845
 C        -2.431406         0.211309        -1.590367
 C        -1.896788        -0.886460        -2.392882
 C        -2.243022        -1.193206        -0.965047
 C        -1.235457        -1.397398         0.228219
 C        -0.392163        -0.121795         0.420774
 O         0.847051        -0.029662         0.518318
 C        -1.264747         1.083759         0.345482
 O        -1.362179         1.142547        -1.175235
 H        -3.925448         1.664861        -2.242138
 H        -4.452954        -0.011089        -2.024109
 H        -4.297483         1.079972        -0.680923
 H        -2.432232        -1.406777        -3.169148
 H        -0.871783        -0.705830        -2.750874
 H        -3.165175        -1.584297        -0.742389
 H        -1.895473        -1.425256         1.103844
 H        -0.753136        -2.421375         0.171009
 H        -2.286633         0.863520         0.804621
 H        -0.746297         2.011164         0.597883
