19
Iteration:   385
 C        -4.080034         0.628970        -1.944829
 C        -2.649584         0.187751        -1.400734
 C        -1.915589        -0.861527        -2.224329
 C        -2.271451        -1.268940        -0.749061
 C        -1.035009        -1.421458         0.120187
 C        -0.150979        -0.145363         0.400807
 O         1.002722         0.021274         0.734868
 C        -0.936381         1.154837         0.047123
 O        -1.780387         1.306873        -1.122496
 H        -3.963096         1.705876        -1.900244
 H        -4.219011         0.420777        -3.039343
 H        -4.876767         0.135543        -1.372490
 H        -2.350636        -1.453260        -3.067073
 H        -0.844570        -0.589818        -2.346895
 H        -3.154414        -2.011130        -0.791747
 H        -1.431082        -1.900416         1.076618
 H        -0.315082        -2.074383        -0.256971
 H        -1.511142         1.330643         1.010887
 H        -0.227596         1.939023         0.056388
