19
Iteration:  1516
 C        -3.709880         0.794794        -0.776326
 C        -2.486902         0.067982        -1.350248
 C        -2.321774        -0.850085        -2.535690
 C        -1.933399        -1.338307        -1.129377
 C        -0.538478        -1.326065        -0.536148
 C        -0.456442        -0.102429         0.356023
 O        -0.346635         0.002623         1.575558
 C        -0.397715         1.172539        -0.528944
 O        -1.526160         1.099729        -1.386286
 H        -4.146203         1.481416        -1.623722
 H        -4.582919         0.186351        -0.358663
 H        -3.399036         1.501846         0.034781
 H        -3.308333        -1.190851        -2.842643
 H        -1.553616        -0.471751        -3.251979
 H        -2.631348        -2.014898        -0.713195
 H        -0.485783        -2.130590         0.196761
 H         0.358528        -1.333481        -1.084237
 H        -0.470979         2.085159         0.005035
 H         0.476696         1.255936        -1.214769
