19
Iteration:   974
 C        -3.821618         0.968126        -1.275701
 C        -2.540977         0.141552        -1.396611
 C        -2.371954        -1.100336        -2.341708
 C        -2.058289        -1.192197        -0.884095
 C        -0.509433        -1.154506        -0.608686
 C        -0.260141        -0.087562         0.431811
 O         0.147417        -0.285945         1.569279
 C        -0.916533         1.323118        -0.195363
 O        -1.412237         0.991113        -1.536327
 H        -3.731350         1.763889        -2.103033
 H        -4.741715         0.302207        -1.320295
 H        -3.818220         1.554691        -0.333702
 H        -3.325442        -1.531612        -2.701591
 H        -1.561746        -0.953701        -3.049311
 H        -2.700331        -1.823048        -0.239821
 H        -0.144809        -2.100133        -0.148278
 H         0.086388        -0.984323        -1.580321
 H        -1.751151         1.572070         0.447865
 H        -0.146204         2.156826        -0.087775
