19
Iteration:  2803
 C        -3.823944         0.690943        -0.910359
 C        -2.465881         0.120758        -1.337137
 C        -2.354222        -0.886730        -2.527108
 C        -1.958053        -1.231558        -0.983725
 C        -0.512488        -1.350615        -0.501975
 C        -0.358959        -0.119060         0.330445
 O        -0.287994        -0.078043         1.551492
 C        -0.482430         1.213821        -0.447336
 O        -1.475965         1.194638        -1.448146
 H        -4.516154         1.059804        -1.682274
 H        -4.317347         0.027367        -0.204385
 H        -3.580996         1.662973        -0.461228
 H        -3.256397        -1.138281        -3.001308
 H        -1.430456        -0.732125        -2.991403
 H        -2.652779        -1.883225        -0.453673
 H        -0.311940        -2.360356         0.053886
 H         0.145480        -1.336030        -1.420038
 H        -0.657992         2.016873         0.227129
 H         0.435270         1.598129        -1.027202
