19
Iteration:  3354
 C        -3.999071         0.651029        -1.540525
 C        -2.595022         0.216370        -1.472211
 C        -2.040435        -0.769252        -2.565967
 C        -2.204640        -1.171218        -1.025874
 C        -0.984545        -1.341794        -0.211941
 C        -0.215204        -0.158808         0.387702
 O         0.580987        -0.350241         1.285392
 C        -0.645812         1.257404        -0.093928
 O        -1.708069         1.315960        -1.032188
 H        -3.888019         1.781414        -1.696577
 H        -4.644529         0.355217        -2.344314
 H        -4.478070         0.338820        -0.550338
 H        -2.607443        -1.218432        -3.356731
 H        -0.966465        -0.613987        -2.826913
 H        -3.007612        -1.969902        -0.810343
 H        -1.200761        -1.964490         0.720092
 H        -0.252000        -1.986207        -0.865382
 H        -0.775223         2.029794         0.768190
 H         0.251294         1.624387        -0.642582
