19
Iteration:  2337
 C        -3.886991         0.895093        -1.409147
 C        -2.538640         0.137116        -1.499886
 C        -2.211249        -1.131459        -2.448610
 C        -2.180699        -1.296143        -0.914720
 C        -0.745954        -1.335175        -0.349325
 C        -0.276963        -0.071692         0.350258
 O         0.398999        -0.062816         1.344760
 C        -0.815905         1.203912        -0.091050
 O        -1.522803         1.210012        -1.280903
 H        -3.583800         1.946187        -1.466560
 H        -4.621192         0.702395        -2.139492
 H        -4.285990         0.760339        -0.421755
 H        -3.077673        -1.386375        -3.071540
 H        -1.301877        -1.200333        -2.977086
 H        -3.015532        -1.889363        -0.451036
 H        -0.593394        -2.048167         0.441302
 H         0.038723        -1.377128        -1.139986
 H        -1.539445         1.385909         0.675030
 H         0.021763         1.963772         0.042062
