19
Iteration:  1046charge 0 multiplicity 1
 C        -3.997836         0.670728        -1.309749
 C        -2.566685         0.186391        -1.564987
 C        -1.898344        -0.792410        -2.483834
 C        -2.091471        -1.219665        -1.030532
 C        -1.104351        -1.297923         0.088386
 C        -0.281178        -0.072940         0.371427
 O         0.646074        -0.277766         1.123059
 C        -0.891250         1.236914        -0.108812
 O        -1.576323         1.206555        -1.385290
 H        -4.193998         1.503763        -1.926738
 H        -4.676793        -0.130975        -1.478584
 H        -4.059858         0.944704        -0.262334
 H        -2.507330        -1.260325        -3.208056
 H        -0.959302        -0.374943        -2.811234
 H        -2.854242        -2.013682        -1.139622
 H        -1.654027        -1.438042         1.018648
 H        -0.459249        -2.142012         0.010524
 H        -1.421440         1.543351         0.850862
 H        -0.162641         2.004923        -0.251741
