19
Iteration:   526charge 0 multiplicity 1
 C        -3.847234         0.264350        -2.031559
 C        -2.475466         0.263968        -1.369179
 C        -1.523789        -0.565954        -2.251043
 C        -2.167606        -1.158605        -0.970023
 C        -1.537852        -1.159363         0.366468
 C        -0.282135        -0.137588         0.260292
 O         0.908199        -0.298667         0.372052
 C        -0.679080         1.244678        -0.199327
 O        -2.134990         1.203663        -0.352605
 H        -3.760273         0.411982        -3.148106
 H        -4.462463        -0.627008        -1.787163
 H        -4.424829         1.165192        -1.657190
 H        -2.017292        -0.786538        -3.208291
 H        -0.437372        -0.584647        -2.234068
 H        -2.964471        -1.990188        -1.012067
 H        -2.197427        -0.652271         1.148327
 H        -1.127036        -2.012971         0.859241
 H        -0.387630         2.106268         0.445065
 H        -0.251710         1.503308        -1.213042
