19
Iteration:  1636charge 0 multiplicity 1
 C        -3.892481         0.978220        -1.553878
 C        -2.518647         0.195423        -1.500559
 C        -2.339176        -1.055107        -2.387461
 C        -2.220157        -1.235106        -0.903138
 C        -0.743690        -1.198830        -0.398266
 C        -0.291602        -0.096897         0.574931
 O         0.682084        -0.211378         1.313507
 C        -1.079466         1.264250         0.019330
 O        -1.391658         0.997415        -1.348034
 H        -3.696874         1.932790        -2.132147
 H        -4.666552         0.446860        -2.146398
 H        -4.292458         1.369143        -0.646011
 H        -3.285690        -1.556713        -2.638756
 H        -1.470252        -1.267746        -2.972702
 H        -3.012215        -1.834182        -0.397563
 H        -0.519430        -2.257519        -0.084636
 H        -0.125252        -1.072620        -1.313895
 H        -1.945209         1.365026         0.740242
 H        -0.409890         2.099182         0.101165
