19
Iteration:  2726
 C        -3.810873         0.930679        -1.342236
 C        -2.473411         0.145354        -1.519131
 C        -2.308672        -1.030178        -2.452701
 C        -2.151730        -1.198127        -0.962195
 C        -0.734686        -1.392909        -0.389286
 C        -0.282256        -0.069768         0.375842
 O         0.489958        -0.002020         1.326156
 C        -1.036430         1.134114         0.024019
 O        -1.432574         1.077647        -1.338113
 H        -3.510653         1.883660        -1.831987
 H        -4.690091         0.473661        -1.747608
 H        -4.072934         1.217101        -0.293125
 H        -3.170213        -1.451198        -2.935252
 H        -1.486106        -1.036131        -3.072505
 H        -2.907074        -1.667237        -0.398963
 H        -0.789406        -2.296333         0.295303
 H         0.033826        -1.745190        -1.144870
 H        -1.998437         1.075820         0.507366
 H        -0.555397         2.138835         0.162649
