19
Iteration:  2391charge 0 multiplicity 1
 C        -3.987079         0.670336        -1.472025
 C        -2.542567         0.260759        -1.600572
 C        -2.116389        -0.916791        -2.508271
 C        -2.222886        -1.159747        -1.087932
 C        -1.089587        -1.243240        -0.101749
 C        -0.209205        -0.048000         0.460828
 O         0.815075        -0.156891         1.117706
 C        -0.970382         1.176066         0.163522
 O        -1.437135         1.112327        -1.250498
 H        -4.264230         1.439377        -2.210181
 H        -4.511458        -0.146377        -1.928349
 H        -4.307036         0.899645        -0.467459
 H        -2.847863        -1.400811        -3.153336
 H        -1.149457        -0.922968        -2.922370
 H        -3.148879        -1.739287        -0.854108
 H        -1.429833        -1.588777         0.856083
 H        -0.340387        -2.001592        -0.294743
 H        -1.893142         1.233114         0.752890
 H        -0.290567         2.104367         0.256792
