19
Iteration:   697charge 0 multiplicity 1
 C        -3.753873         0.754596        -1.355379
 C        -2.433555         0.095098        -1.590107
 C        -2.328696        -1.054307        -2.579756
 C        -2.120018        -1.278912        -1.042266
 C        -0.834066        -1.322636        -0.140053
 C        -0.337258        -0.002135         0.450370
 O         0.684548         0.058917         1.095895
 C        -1.242979         1.216132         0.144945
 O        -1.387753         1.139462        -1.286878
 H        -4.117027         1.494540        -2.046688
 H        -4.600120         0.106571        -1.102390
 H        -3.609912         1.470336        -0.459903
 H        -3.236315        -1.542992        -2.941507
 H        -1.401936        -1.169053        -3.231583
 H        -2.999204        -1.865339        -0.715170
 H        -1.062264        -2.052102         0.745252
 H        -0.004119        -1.894422        -0.781414
 H        -2.216506         1.262711         0.683485
 H        -0.691860         2.160866         0.404229
