19
Iteration:   404
 C        -3.980813         0.526231        -2.055612
 C        -2.554830         0.159412        -1.433377
 C        -1.941512        -0.952550        -2.241302
 C        -2.249078        -1.084331        -0.725358
 C        -0.990050        -1.259296         0.123033
 C        -0.112386        -0.068301         0.229021
 O         0.975929        -0.213348         0.708808
 C        -0.954944         1.242165         0.116842
 O        -1.947104         1.327899        -0.907234
 H        -4.098970         1.580376        -2.262488
 H        -4.178662         0.126089        -3.079967
 H        -4.870811         0.080750        -1.467293
 H        -2.591251        -1.404856        -3.007151
 H        -0.812087        -0.865671        -2.464864
 H        -3.015736        -1.832431        -0.532926
 H        -1.248544        -1.528954         1.163195
 H        -0.444392        -2.225575        -0.258592
 H        -1.402637         1.458282         1.078446
 H        -0.202183         2.060848         0.008717
