19
Iteration:   233
 C        -3.956861         0.514698        -1.409840
 C        -2.490058         0.188419        -1.359595
 C        -2.502225        -1.159799        -2.183756
 C        -2.097363        -1.131517        -0.723893
 C        -0.592064        -1.196525        -0.594198
 C        -0.304228         0.011431         0.407821
 O         0.263314        -0.012805         1.468427
 C        -0.704533         1.364301        -0.233143
 O        -1.362098         1.089787        -1.531585
 H        -4.401269        -0.430357        -1.614423
 H        -4.373500         0.921400        -0.469100
 H        -4.263172         1.183760        -2.241283
 H        -3.505302        -1.475896        -2.572524
 H        -1.801435        -1.461438        -3.041193
 H        -2.715659        -1.654049         0.105549
 H        -0.080413        -2.122082        -0.197838
 H        -0.262698        -1.084442        -1.599450
 H        -1.263748         1.963085         0.477236
 H         0.203558         1.875422        -0.508043
