19
Iteration:  4876charge 0 multiplicity 1
 C        -4.022633         0.758669        -1.845535
 C        -2.607968         0.247255        -1.507938
 C        -1.669630        -0.537914        -2.336301
 C        -2.206805        -1.162927        -1.017450
 C        -1.324332        -1.386922         0.185685
 C        -0.263873        -0.283494         0.427306
 O         0.857905        -0.391007         0.867700
 C        -0.591484         1.084636        -0.164361
 O        -1.954691         1.283482        -0.808394
 H        -4.511254         0.343015        -2.765009
 H        -4.737109         0.607037        -1.083576
 H        -3.919865         1.942829        -1.819748
 H        -1.842138        -0.940113        -3.334996
 H        -0.502326        -0.385625        -2.240600
 H        -3.012177        -1.869399        -1.265486
 H        -2.079657        -1.394399         0.955101
 H        -0.933588        -2.413066         0.105941
 H        -0.652207         1.838223         0.646991
 H         0.164377         1.386870        -0.873337
