19
Iteration:  3227charge 0 multiplicity 1
 C        -3.911946         0.694513        -1.937206
 C        -2.548914         0.230217        -1.488751
 C        -1.513278        -0.572817        -2.301231
 C        -2.199963        -1.145020        -0.982962
 C        -1.373133        -1.363315         0.343386
 C        -0.303368        -0.269492         0.329716
 O         0.901679        -0.333306         0.557511
 C        -0.779625         1.137498        -0.175766
 O        -2.066291         1.230169        -0.541630
 H        -3.873249         1.354836        -2.809516
 H        -4.534672        -0.177997        -2.263011
 H        -4.407328         1.284839        -1.188202
 H        -1.794982        -0.973292        -3.234444
 H        -0.451841        -0.318671        -2.152709
 H        -2.984911        -1.932536        -1.201230
 H        -2.135166        -1.162209         1.116592
 H        -0.931633        -2.280406         0.574132
 H        -0.488597         1.834046         0.593230
 H        -0.020173         1.509099        -0.965766
