19
Iteration:  3100
 C        -3.783694         0.789872        -1.692944
 C        -2.370033         0.168100        -1.525935
 C        -1.746321        -0.959560        -2.347154
 C        -2.286098        -1.156872        -0.976010
 C        -1.296372        -1.380842         0.257047
 C        -0.428935        -0.109233         0.435913
 O         0.800979        -0.038116         0.304704
 C        -1.209066         1.161163         0.383403
 O        -1.439981         1.148241        -1.010581
 H        -3.697086         1.857430        -1.854572
 H        -4.586777         0.455734        -2.450422
 H        -4.396110         0.711222        -0.782116
 H        -2.377268        -1.191390        -3.170538
 H        -0.670214        -1.121611        -2.578100
 H        -3.102948        -1.759159        -0.877400
 H        -1.922098        -1.535326         1.144852
 H        -0.740089        -2.357636         0.045000
 H        -2.178236         1.162888         0.993945
 H        -0.452546         1.901117         0.552244
