19
Iteration:  3373charge 0 multiplicity 1
 C        -4.005832         0.626444        -1.487529
 C        -2.483077         0.368036        -1.514927
 C        -2.206022        -0.846133        -2.585394
 C        -2.183339        -1.173264        -1.116572
 C        -0.918558        -1.365887        -0.250839
 C        -0.264018        -0.148855         0.480351
 O         0.572014        -0.300678         1.370865
 C        -0.601604         1.179106        -0.074121
 O        -1.658239         1.324463        -1.129167
 H        -4.402194         1.689921        -1.534237
 H        -4.475356         0.241012        -2.397673
 H        -4.543362         0.039147        -0.662463
 H        -3.179043        -1.001868        -3.018884
 H        -1.222514        -0.926377        -3.154225
 H        -2.990008        -1.684991        -0.561636
 H        -1.149046        -2.182500         0.433656
 H         0.020041        -1.666011        -0.779448
 H        -0.773558         1.585226         0.977455
 H         0.232204         1.889050        -0.411542
