19
Iteration:  1496charge 0 multiplicity 1
 C        -3.772570         0.738560        -0.804295
 C        -2.453483         0.113766        -1.263018
 C        -2.444975        -0.812781        -2.401251
 C        -1.860587        -1.243788        -1.034271
 C        -0.430112        -1.453330        -0.463716
 C        -0.292288        -0.109759         0.271719
 O        -0.522543        -0.046744         1.464608
 C        -0.424554         1.177432        -0.495265
 O        -1.446959         1.218645        -1.508610
 H        -3.928346         1.624964        -1.528541
 H        -4.504244        -0.090865        -1.003719
 H        -3.725662         1.077748         0.242014
 H        -3.307112        -1.386310        -2.723216
 H        -1.707776        -0.537374        -3.148944
 H        -2.696822        -1.813372        -0.654541
 H        -0.422381        -2.337902         0.201700
 H         0.183538        -1.646856        -1.265521
 H        -0.558292         2.007237         0.182518
 H         0.480826         1.467155        -1.152823
