19
Iteration:   108charge 0 multiplicity 1
 C        -3.712961         0.563631        -0.691832
 C        -2.489042         0.095190        -1.386875
 C        -2.350016        -1.049790        -2.376368
 C        -1.883678        -1.249627        -0.960206
 C        -0.516245        -1.247563        -0.346752
 C        -0.418144         0.086653         0.319404
 O        -0.309600         0.164861         1.546159
 C        -0.481019         1.186869        -0.674950
 O        -1.535887         1.068816        -1.703361
 H        -4.661466         0.022358        -1.020620
 H        -3.670543         0.339096         0.415651
 H        -3.890433         1.607366        -0.909718
 H        -3.252524        -1.526401        -2.595689
 H        -1.620870        -0.851853        -3.145204
 H        -2.614916        -1.801077        -0.372699
 H        -0.529060        -2.039849         0.388416
 H         0.296844        -1.420518        -1.060779
 H        -0.609420         2.211265        -0.332547
 H         0.453549         1.138211        -1.285148
