19
Iteration:  1786charge 0 multiplicity 1
 C        -3.905686         0.734915        -1.938559
 C        -2.525461         0.202301        -1.385714
 C        -1.696397        -0.862607        -2.063358
 C        -2.375755        -1.206590        -0.774299
 C        -1.213422        -1.343071         0.184318
 C        -0.287424        -0.163098         0.274725
 O         0.869148        -0.351020         0.559137
 C        -0.933678         1.223322         0.064299
 O        -1.753976         1.380688        -1.092868
 H        -3.824289         1.798064        -2.259723
 H        -4.279900         0.140328        -2.846376
 H        -4.723639         0.806918        -1.034214
 H        -1.965804        -1.088472        -3.104104
 H        -0.589286        -0.696797        -1.998343
 H        -3.338087        -1.738517        -0.651263
 H        -1.466581        -1.502425         1.202910
 H        -0.637622        -2.283714        -0.135499
 H        -1.488275         1.257825         0.995772
 H        -0.084849         1.842754         0.181586
