19
Iteration:  1147
 C        -3.654782         0.728710        -2.217364
 C        -2.443569         0.211925        -1.395735
 C        -1.769470        -1.010573        -2.068245
 C        -2.383628        -1.095307        -0.665683
 C        -1.253536        -1.317739         0.396463
 C        -0.235512        -0.168221         0.271118
 O         0.965445        -0.184177         0.069690
 C        -1.156570         1.088521         0.373445
 O        -1.865096         1.375781        -0.840105
 H        -3.197787         1.303308        -3.083404
 H        -4.170882        -0.094897        -2.755704
 H        -4.202772         1.381158        -1.587005
 H        -2.107186        -1.417034        -3.036313
 H        -0.635180        -1.005732        -2.160304
 H        -3.335137        -1.625700        -0.528890
 H        -1.652034        -1.504773         1.422220
 H        -0.871232        -2.343081         0.140799
 H        -1.914386         0.955986         1.177508
 H        -0.562074         2.078118         0.555683
