19
Iteration:  4960
 C        -3.876663         0.821659        -2.058607
 C        -2.537737         0.225660        -1.488283
 C        -1.599602        -0.600058        -2.259200
 C        -2.153264        -1.150569        -0.927749
 C        -1.294536        -1.383752         0.332264
 C        -0.292092        -0.248133         0.298003
 O         0.898355        -0.540855         0.592968
 C        -0.816609         1.148524        -0.029145
 O        -2.126001         1.334386        -0.655906
 H        -4.717609         0.092267        -2.133786
 H        -4.093430         1.639982        -1.315824
 H        -3.649042         1.086785        -3.005818
 H        -1.849156        -1.021576        -3.189121
 H        -0.661102        -0.066656        -2.266466
 H        -2.876469        -1.930503        -1.218642
 H        -1.849155        -1.197406         1.316457
 H        -0.806313        -2.358464         0.341237
 H        -0.784128         1.669987         0.924098
 H        -0.047255         1.651104        -0.686403
