19
Iteration:   278
 C        -3.931800         0.820177        -1.293049
 C        -2.596196         0.042394        -1.465338
 C        -2.177938        -1.040427        -2.379678
 C        -2.070179        -1.291945        -0.911511
 C        -0.735101        -1.417257        -0.146636
 C        -0.234784        -0.036758         0.365267
 O         0.537519         0.099996         1.332123
 C        -0.946985         1.322650        -0.270316
 O        -1.609277         1.076286        -1.480831
 H        -4.585199         0.543041        -0.441139
 H        -3.649223         1.882400        -1.258568
 H        -4.574794         0.724140        -2.138774
 H        -2.872126        -1.598928        -2.973655
 H        -1.225574        -0.835833        -2.955232
 H        -2.956862        -1.970206        -0.558022
 H        -0.833224        -2.175411         0.665003
 H         0.127515        -1.801635        -0.713193
 H        -1.626364         1.660651         0.513613
 H        -0.152815         2.000924        -0.387656
