19
Iteration:  4806charge 0 multiplicity 1
 C        -4.051053         0.604766        -1.735212
 C        -2.623219         0.320831        -1.507515
 C        -1.750101        -0.514478        -2.427009
 C        -2.221081        -1.079020        -1.115212
 C        -1.207003        -1.331527        -0.000298
 C        -0.270684        -0.225121         0.332849
 O         0.620522        -0.427468         1.177066
 C        -0.425579         1.093834        -0.367700
 O        -1.860047         1.249307        -0.656458
 H        -4.603033        -0.294439        -1.935840
 H        -4.480027         1.069843        -0.765023
 H        -4.139120         1.368061        -2.383501
 H        -2.110350        -0.836895        -3.386595
 H        -0.680591        -0.316831        -2.505992
 H        -2.989385        -1.908251        -1.177139
 H        -1.757612        -1.388722         0.983548
 H        -0.682608        -2.278783        -0.221374
 H        -0.144899         1.849542         0.374441
 H         0.182941         1.185884        -1.288728
