19
Iteration:  4907
 C        -3.836978         0.677444        -1.969450
 C        -2.485788         0.281350        -1.379123
 C        -1.733635        -0.711259        -2.303259
 C        -2.252558        -1.080247        -0.932193
 C        -1.267101        -1.398885         0.080651
 C        -0.281580        -0.202723         0.293808
 O         0.791545        -0.505529         0.769972
 C        -0.671437         1.236585        -0.061330
 O        -2.032258         1.396988        -0.682637
 H        -4.049666        -0.035025        -2.784492
 H        -4.626442         0.651911        -1.235283
 H        -3.677704         1.628320        -2.458582
 H        -2.298680        -0.999502        -3.177529
 H        -0.643323        -0.983376        -2.460808
 H        -3.114893        -1.789047        -0.956024
 H        -1.770226        -1.500044         1.091802
 H        -0.721513        -2.260300        -0.280219
 H        -0.792267         1.640118         0.944746
 H         0.074842         1.789869        -0.656629
