19
Iteration:   984charge 0 multiplicity 1
 C        -3.837622         0.881276        -1.270615
 C        -2.489785         0.159105        -1.432937
 C        -2.392808        -1.032587        -2.393825
 C        -2.070607        -1.206626        -0.941929
 C        -0.618744        -1.292685        -0.495511
 C        -0.262263        -0.028673         0.431231
 O         0.245535        -0.239855         1.534320
 C        -0.893721         1.274780        -0.130198
 O        -1.413750         1.083783        -1.504551
 H        -3.854041         1.593589        -2.204563
 H        -4.822468         0.331969        -1.506084
 H        -3.987367         1.455870        -0.313010
 H        -3.268035        -1.443258        -2.904300
 H        -1.502148        -1.039906        -3.016643
 H        -2.717522        -1.811675        -0.264012
 H        -0.369129        -2.188089         0.072758
 H         0.092734        -1.242367        -1.398434
 H        -1.721147         1.683567         0.432793
 H        -0.186932         2.125812        -0.400005
