19
Iteration:  3387
 C        -3.998047         0.616196        -1.460981
 C        -2.516253         0.239882        -1.492992
 C        -2.271392        -0.799240        -2.562794
 C        -2.131042        -1.067693        -1.046349
 C        -0.833224        -1.404470        -0.287925
 C        -0.288461        -0.248358         0.442448
 O         0.508534        -0.251203         1.388635
 C        -0.725501         1.169520        -0.043893
 O        -1.522657         1.392801        -1.200571
 H        -4.078142         1.717439        -1.256534
 H        -4.485335         0.279467        -2.369285
 H        -4.488318         0.137088        -0.547893
 H        -3.101499        -1.243841        -3.099329
 H        -1.356059        -0.823611        -3.117024
 H        -3.020995        -1.675018        -0.723525
 H        -0.889746        -2.295791         0.409729
 H        -0.074102        -1.722263        -1.106325
 H        -1.223057         1.832263         0.704206
 H         0.299047         1.498897        -0.302157
