19
Iteration:   805charge 0 multiplicity 1
 C        -3.967382         0.504131        -0.981761
 C        -2.505778         0.143284        -1.393810
 C        -2.104830        -0.826570        -2.427231
 C        -2.070746        -1.159761        -0.921457
 C        -0.620991        -1.289959        -0.444910
 C        -0.351580        -0.123108         0.335956
 O        -0.049613         0.030565         1.524477
 C        -0.478588         1.144897        -0.490255
 O        -1.581491         1.202859        -1.431126
 H        -4.323046         1.490554        -1.319920
 H        -4.582324        -0.290919        -1.476660
 H        -4.119399         0.306133         0.176743
 H        -2.884604        -1.270762        -3.099524
 H        -1.113535        -0.508503        -2.866360
 H        -2.831975        -1.924789        -0.670473
 H        -0.433605        -2.256285         0.074593
 H        -0.108627        -1.330716        -1.358651
 H        -0.587311         2.054629         0.175345
 H         0.447189         1.323299        -1.077174
