19
Iteration:  1951charge 0 multiplicity 1
 C        -3.895387         0.835622        -1.705192
 C        -2.467384         0.152039        -1.519642
 C        -1.920703        -0.918257        -2.449404
 C        -2.322743        -1.255663        -1.032057
 C        -1.215343        -1.328543         0.153456
 C        -0.304241        -0.102628         0.507778
 O         0.940717        -0.140185         0.662958
 C        -0.993184         1.198477         0.280037
 O        -1.602335         1.155155        -1.066905
 H        -3.662623         1.716689        -2.245899
 H        -4.521717         0.180739        -2.289316
 H        -4.425498         1.074870        -0.775777
 H        -2.487316        -1.215840        -3.328535
 H        -0.899405        -0.821753        -2.743775
 H        -3.202886        -1.947453        -0.879589
 H        -1.875669        -1.478101         1.038078
 H        -0.610328        -2.251497        -0.028050
 H        -1.839159         1.548894         0.929275
 H        -0.258048         2.011884         0.120852
