19
Iteration:  1972charge 0 multiplicity 1
 C        -3.881179         0.861026        -1.777664
 C        -2.507848         0.212863        -1.456423
 C        -2.020145        -0.816002        -2.342594
 C        -2.187824        -1.133592        -0.811477
 C        -1.004681        -1.491626         0.140975
 C        -0.357700        -0.204956         0.382366
 O         0.804095        -0.119907         0.786268
 C        -1.041679         1.100279         0.140318
 O        -1.561861         1.211990        -1.231493
 H        -3.666779         1.842383        -2.134515
 H        -4.457885         0.397036        -2.540178
 H        -4.502469         1.025748        -0.899428
 H        -2.667730        -1.517086        -2.849616
 H        -1.095444        -0.628538        -2.839906
 H        -3.103982        -1.773506        -0.711341
 H        -1.492890        -1.930696         1.088010
 H        -0.366310        -2.300376        -0.326515
 H        -1.910074         1.154395         0.889854
 H        -0.398166         1.957248         0.293211
