19
Iteration:   954charge 0 multiplicity 1
 C        -3.742171         0.986819        -1.176860
 C        -2.464264         0.161426        -1.451106
 C        -2.488077        -1.141027        -2.239501
 C        -1.902814        -1.176778        -0.838929
 C        -0.395055        -1.084226        -0.751923
 C        -0.361145        -0.074037         0.372059
 O        -0.119805        -0.259921         1.540660
 C        -0.903158         1.166067        -0.166978
 O        -1.380880         0.999257        -1.523478
 H        -3.749944         1.641796        -2.075978
 H        -4.691151         0.445199        -1.079555
 H        -3.507975         1.627116        -0.357899
 H        -3.537456        -1.638078        -2.351545
 H        -1.727274        -1.232381        -3.019300
 H        -2.281342        -1.794764        -0.023533
 H         0.341102        -1.962577        -0.579510
 H         0.061330        -0.556521        -1.667644
 H        -1.677850         1.739856         0.339545
 H         0.031463         1.859271        -0.254460
