19
Iteration:  3182
 C        -3.820265         0.576340        -2.100609
 C        -2.451136         0.262061        -1.335608
 C        -1.659060        -0.754148        -2.192245
 C        -2.299049        -1.176119        -0.826232
 C        -1.303996        -1.296623         0.235264
 C        -0.258711        -0.188867         0.191470
 O         0.907486        -0.415339         0.350999
 C        -0.867619         1.229963         0.253086
 O        -1.977477         1.386048        -0.743387
 H        -3.846359         1.647993        -2.377339
 H        -3.929042         0.060799        -3.018886
 H        -4.690354         0.433591        -1.427754
 H        -2.040677        -1.043939        -3.164278
 H        -0.569741        -0.821039        -2.108404
 H        -3.362045        -1.657569        -0.916032
 H        -1.843819        -1.253969         1.186796
 H        -0.901303        -2.269100         0.153885
 H        -1.428377         1.439754         1.158833
 H        -0.159964         2.131776         0.244332
