19
Iteration:  2082charge 0 multiplicity 1
 C        -3.883244         0.860694        -1.095176
 C        -2.529713         0.222088        -1.630975
 C        -2.235061        -1.027077        -2.511790
 C        -2.093521        -1.161038        -1.006056
 C        -0.743878        -1.381766        -0.310089
 C        -0.290932        -0.152968         0.419527
 O         0.259250        -0.110241         1.496964
 C        -0.828171         1.193731        -0.196664
 O        -1.423601         1.172675        -1.509696
 H        -4.389273         1.462128        -1.795752
 H        -4.475329         0.096212        -0.610378
 H        -3.494497         1.502315        -0.333348
 H        -3.089413        -1.533954        -2.941195
 H        -1.287958        -0.847787        -3.047330
 H        -2.881717        -1.758449        -0.558253
 H        -0.782383        -2.327279         0.335851
 H         0.069022        -1.709362        -1.043943
 H        -1.570771         1.521469         0.519845
 H        -0.030704         1.986021        -0.191276
