19
Iteration:  2696
 C        -3.916615         0.913582        -1.615347
 C        -2.528702         0.160068        -1.493374
 C        -2.152574        -0.989015        -2.378896
 C        -2.209909        -1.182806        -0.882335
 C        -0.835240        -1.330817        -0.263082
 C        -0.331338        -0.105987         0.570678
 O         0.786921        -0.156416         1.074554
 C        -1.103940         1.193165         0.126840
 O        -1.494364         1.100962        -1.254766
 H        -3.640491         1.861608        -2.066322
 H        -4.589581         0.551778        -2.407355
 H        -4.451976         0.987282        -0.655438
 H        -2.981956        -1.434162        -2.896613
 H        -1.284204        -0.950927        -2.985816
 H        -2.968376        -1.868475        -0.543970
 H        -0.709851        -2.363789         0.212777
 H        -0.193888        -1.291667        -1.088748
 H        -2.142845         1.390289         0.579081
 H        -0.576704         2.135127         0.129811
