19
Iteration:  2309
 C        -3.875692         0.746314        -1.293541
 C        -2.520797         0.190601        -1.477618
 C        -2.424190        -0.985677        -2.468167
 C        -2.098720        -1.162250        -0.935769
 C        -0.654448        -1.226687        -0.455765
 C        -0.302089        -0.065797         0.510658
 O         0.348680        -0.175672         1.577003
 C        -0.862617         1.267581        -0.193508
 O        -1.377236         1.050109        -1.526480
 H        -3.957448         1.828168        -1.468933
 H        -4.577931         0.062832        -1.869790
 H        -4.232650         0.580871        -0.218808
 H        -3.357835        -1.379813        -2.862493
 H        -1.623097        -0.931604        -3.231554
 H        -2.803505        -1.726611        -0.369532
 H        -0.570811        -2.097686         0.228858
 H         0.154281        -1.151088        -1.207096
 H        -1.608734         1.925443         0.376256
 H         0.086352         1.757592        -0.255440
