19
Iteration:  1110
 C        -3.875611         0.600495        -1.964556
 C        -2.542707         0.247673        -1.451803
 C        -1.756290        -0.873662        -2.150223
 C        -2.277522        -1.042430        -0.765096
 C        -1.198725        -1.374017         0.252283
 C        -0.310981        -0.171878         0.277562
 O         0.884416        -0.266701         0.427182
 C        -1.041515         1.182580         0.255606
 O        -1.675061         1.348530        -1.019908
 H        -3.711966         1.372782        -2.650147
 H        -4.182282        -0.257481        -2.510052
 H        -4.739505         0.904333        -1.371687
 H        -2.288604        -1.273134        -3.002163
 H        -0.736820        -0.622290        -2.300579
 H        -3.150341        -1.701612        -0.612375
 H        -1.708387        -1.519652         1.303374
 H        -0.592823        -2.223070        -0.054584
 H        -1.751427         1.348414         1.074016
 H        -0.250310         1.875265         0.310808
