19
Iteration:   670
 C        -3.854084         0.777543        -1.370288
 C        -2.512051         0.079996        -1.447576
 C        -2.045971        -0.886507        -2.519753
 C        -2.116969        -1.316644        -1.034924
 C        -0.956004        -1.401598         0.007225
 C        -0.336143        -0.058522         0.389645
 O         0.739254         0.125481         0.963417
 C        -1.106252         1.127146         0.031401
 O        -1.536308         1.098557        -1.276136
 H        -3.802452         1.799616        -1.867005
 H        -4.743697         0.251908        -1.790543
 H        -4.150554         1.136153        -0.386699
 H        -2.864931        -1.302842        -3.151566
 H        -1.149384        -0.593892        -2.999494
 H        -2.949661        -2.000958        -0.981142
 H        -1.457193        -1.731393         0.914303
 H        -0.304233        -2.171426        -0.207382
 H        -1.998742         1.211700         0.727685
 H        -0.494045         1.994755         0.226904
