19
Iteration:  4752charge 0 multiplicity 1
 C        -3.936212         0.862653        -1.714316
 C        -2.588591         0.301663        -1.457491
 C        -1.848856        -0.710800        -2.458359
 C        -2.211497        -1.212397        -1.038029
 C        -1.049651        -1.387801        -0.122118
 C        -0.321463        -0.224885         0.390117
 O         0.603432        -0.377391         1.168141
 C        -0.578137         1.110731        -0.191654
 O        -1.881896         1.279929        -0.811231
 H        -4.568539         0.091945        -2.164097
 H        -4.450413         1.264868        -0.742190
 H        -3.902653         1.675394        -2.374174
 H        -2.395977        -1.013713        -3.289994
 H        -0.756222        -0.678875        -2.686465
 H        -3.127327        -1.790385        -0.778628
 H        -1.177682        -2.098647         0.687778
 H        -0.270900        -1.872471        -0.660559
 H        -0.423349         1.853213         0.579103
 H         0.115915         1.287627        -0.998355
