19
Iteration:  1448
 C        -3.657770         0.734691        -0.855294
 C        -2.424438         0.167091        -1.428155
 C        -2.477482        -1.060591        -2.332170
 C        -2.024311        -1.189630        -0.900338
 C        -0.500077        -1.117493        -0.657322
 C        -0.403728        -0.030946         0.382881
 O        -0.436308        -0.235088         1.578330
 C        -0.461594         1.249410        -0.410449
 O        -1.340115         1.091567        -1.632431
 H        -3.392030         1.813150        -0.913134
 H        -4.547964         0.401047        -1.430474
 H        -3.579642         0.448002         0.233457
 H        -3.530275        -1.373955        -2.617982
 H        -1.720589        -1.128917        -3.140090
 H        -2.585002        -1.657364        -0.047948
 H        -0.123459        -2.100020        -0.473743
 H        -0.088632        -0.729256        -1.644549
 H        -0.954380         2.015530         0.198465
 H         0.498136         1.602587        -0.726674
