19
Iteration:  3817charge 0 multiplicity 1
 C        -3.942516         0.743126        -1.308882
 C        -2.530003         0.183879        -1.515306
 C        -1.977929        -0.552668        -2.658142
 C        -2.159392        -1.217155        -1.271427
 C        -1.106423        -1.383889        -0.122553
 C        -0.276846        -0.205556         0.492145
 O         0.601242        -0.343145         1.312372
 C        -0.775598         1.136022        -0.051700
 O        -1.589088         1.255401        -1.212634
 H        -4.643185        -0.098811        -1.592814
 H        -4.233061         0.918985        -0.213604
 H        -4.331228         1.571920        -1.912412
 H        -2.418481        -1.074738        -3.513249
 H        -0.943526        -0.093815        -2.833569
 H        -2.930190        -1.935941        -1.137894
 H        -1.713408        -1.684317         0.719678
 H        -0.316739        -2.013646        -0.374889
 H        -1.269051         1.571604         0.818212
 H         0.020588         1.825362        -0.163579
