19
Iteration:  4607
 C        -4.020075         0.678078        -1.776998
 C        -2.594397         0.321643        -1.432900
 C        -1.787111        -0.498124        -2.417205
 C        -2.233372        -1.122929        -1.128408
 C        -1.167085        -1.396049         0.001374
 C        -0.237896        -0.282491         0.410474
 O         0.707756        -0.365983         1.191065
 C        -0.572834         1.054903        -0.372537
 O        -1.873265         1.291862        -0.660079
 H        -4.395074        -0.157540        -2.406260
 H        -4.770105         0.902234        -1.008285
 H        -4.139922         1.506229        -2.508987
 H        -2.279302        -0.860044        -3.407690
 H        -0.690140        -0.408335        -2.552019
 H        -3.074478        -1.744559        -1.350055
 H        -1.745631        -1.646653         0.906626
 H        -0.706917        -2.294081        -0.267517
 H        -0.044002         1.889795         0.197124
 H         0.029246         0.972346        -1.311930
