19
Iteration:  3836charge 0 multiplicity 1
 C        -4.070522         0.677276        -1.400381
 C        -2.527756         0.270119        -1.566432
 C        -1.938346        -0.640419        -2.637628
 C        -2.113486        -1.070287        -1.234888
 C        -1.102853        -1.413380        -0.152743
 C        -0.327922        -0.209419         0.467191
 O         0.617846        -0.341898         1.201311
 C        -0.782640         1.220812         0.113741
 O        -1.544555         1.184190        -1.111010
 H        -4.843784        -0.096320        -1.450771
 H        -3.982253         1.251512        -0.396077
 H        -4.334027         1.331922        -2.187448
 H        -2.723221        -1.068739        -3.254997
 H        -0.982459        -0.380246        -3.227754
 H        -2.930238        -1.779617        -1.127152
 H        -1.580077        -1.811078         0.792196
 H        -0.325376        -2.240698        -0.304092
 H        -1.266830         1.778613         0.883198
 H         0.349414         1.551503        -0.076056
