19
Iteration:  1484
 C        -3.835628         0.667169        -0.794219
 C        -2.449109         0.269963        -1.345612
 C        -2.396355        -0.863566        -2.322476
 C        -1.921521        -1.235750        -0.923057
 C        -0.421370        -1.416757        -0.516210
 C        -0.317719        -0.160164         0.251452
 O        -0.561429        -0.110734         1.442036
 C        -0.358212         1.231157        -0.517206
 O        -1.379959         1.221151        -1.576856
 H        -4.172661         1.706692        -1.192856
 H        -4.681672        -0.003782        -1.133864
 H        -3.949197         0.728357         0.303338
 H        -3.367516        -1.247668        -2.608359
 H        -1.704982        -0.743174        -3.200064
 H        -2.478325        -1.804045        -0.222816
 H        -0.319748        -2.199616         0.227820
 H         0.310254        -1.478932        -1.235326
 H        -0.661838         1.830536         0.304348
 H         0.647494         1.575491        -0.923020
