19
Iteration:  1859charge 0 multiplicity 1
 C        -3.756791         0.678434        -1.932621
 C        -2.468510         0.184694        -1.441313
 C        -1.762956        -0.904502        -2.195303
 C        -2.365584        -1.144396        -0.798631
 C        -1.337465        -1.237000         0.210428
 C        -0.294278        -0.117562         0.287195
 O         0.932579        -0.340414         0.383312
 C        -1.008802         1.209482         0.258108
 O        -1.773161         1.311060        -0.950380
 H        -3.411732         1.355696        -2.724284
 H        -4.451003        -0.079247        -2.284844
 H        -4.251037         1.270530        -1.199461
 H        -2.127793        -1.209216        -3.190214
 H        -0.659299        -0.756392        -2.313892
 H        -3.188444        -1.781362        -0.605985
 H        -1.820304        -1.322469         1.251509
 H        -0.657707        -2.067983         0.079804
 H        -1.599058         1.034903         1.197235
 H        -0.260255         2.027707         0.354829
