19
Iteration:  2750charge 0 multiplicity 1
 C        -3.800784         0.772467        -1.158285
 C        -2.433592         0.197179        -1.516023
 C        -2.425162        -0.874790        -2.471130
 C        -2.096444        -1.252697        -1.024973
 C        -0.687370        -1.322811        -0.345252
 C        -0.375908        -0.057700         0.416731
 O         0.325072        -0.099844         1.454631
 C        -0.925308         1.211424        -0.100282
 O        -1.333981         1.052468        -1.541662
 H        -4.122259         1.537614        -1.868133
 H        -4.489346        -0.071199        -1.014545
 H        -3.816011         1.293366        -0.166939
 H        -3.280031        -1.295884        -2.949659
 H        -1.543613        -0.831543        -3.088785
 H        -2.885696        -1.766739        -0.465974
 H        -0.530508        -2.207583         0.390358
 H         0.071959        -1.526753        -1.085471
 H        -1.877739         1.529721         0.353258
 H        -0.258303         2.050507        -0.163520
