19
Iteration:  4041
 C        -4.041830         0.702961        -1.686675
 C        -2.540503         0.285630        -1.494389
 C        -1.928225        -0.611912        -2.509689
 C        -2.192249        -1.110163        -1.062993
 C        -1.125676        -1.405564        -0.060566
 C        -0.244857        -0.295898         0.485206
 O         0.826330        -0.370722         1.121475
 C        -0.801807         1.142576         0.048271
 O        -1.700779         1.307506        -1.056098
 H        -4.718028        -0.143508        -1.983066
 H        -4.621521         1.227410        -0.835286
 H        -4.154236         1.501333        -2.545637
 H        -2.568048        -1.057441        -3.332934
 H        -0.961251        -0.246651        -2.724206
 H        -3.101169        -1.771069        -0.924046
 H        -1.716845        -1.902591         0.740712
 H        -0.431583        -2.252304        -0.451313
 H        -1.181534         1.549106         0.949538
 H         0.144296         1.646840        -0.399820
