19
Iteration:  1788
 C        -3.878414         0.751118        -1.952365
 C        -2.524702         0.205218        -1.380534
 C        -1.714019        -0.850243        -2.047014
 C        -2.386311        -1.217711        -0.759671
 C        -1.204126        -1.357881         0.174959
 C        -0.279475        -0.163251         0.277038
 O         0.881040        -0.337760         0.551660
 C        -0.943005         1.221164         0.064243
 O        -1.765392         1.359881        -1.084154
 H        -3.752494         1.812219        -2.248108
 H        -4.303812         0.170384        -2.846296
 H        -4.766921         0.792769        -1.172238
 H        -1.915697        -1.003765        -3.078822
 H        -0.624724        -0.769811        -1.996219
 H        -3.374825        -1.758625        -0.639462
 H        -1.499570        -1.536496         1.233230
 H        -0.644573        -2.287250        -0.171594
 H        -1.505291         1.269598         0.974348
 H        -0.110569         1.928104         0.094589
