19
Iteration:  4414charge 0 multiplicity 1
 C        -3.851869         0.799702        -2.182918
 C        -2.664170         0.195341        -1.449018
 C        -1.575715        -0.532573        -2.108659
 C        -2.241559        -1.249781        -0.941223
 C        -1.445095        -1.220490         0.295822
 C        -0.174754        -0.291948         0.226754
 O         0.982014        -0.489075         0.592403
 C        -0.763737         1.135278        -0.138822
 O        -2.102395         1.214692        -0.492105
 H        -4.009961         0.291501        -3.144270
 H        -4.834171         0.940460        -1.601377
 H        -3.605685         1.774299        -2.498956
 H        -1.748451        -0.841447        -3.129736
 H        -0.482585        -0.188885        -2.100445
 H        -2.830864        -2.175024        -1.059119
 H        -2.037656        -0.592650         0.970225
 H        -1.047368        -2.186202         0.824678
 H        -0.571318         1.668248         0.759487
 H        -0.123790         1.688704        -0.875547
