19
Iteration:  2784charge 0 multiplicity 1
 C        -3.813726         0.696124        -0.919224
 C        -2.509383         0.218020        -1.500814
 C        -2.290628        -0.947587        -2.516057
 C        -2.089804        -1.272443        -1.053697
 C        -0.658602        -1.236681        -0.491717
 C        -0.346455        -0.038909         0.426070
 O        -0.013402        -0.144724         1.613601
 C        -0.575817         1.245734        -0.325525
 O        -1.464717         1.115607        -1.540725
 H        -4.551702         1.005341        -1.666737
 H        -4.355597        -0.072202        -0.298936
 H        -3.573856         1.588033        -0.329234
 H        -3.099627        -1.558834        -2.951931
 H        -1.359135        -0.738195        -3.126862
 H        -2.918285        -1.874817        -0.575931
 H        -0.517313        -2.232273         0.038092
 H         0.059397        -1.167613        -1.282065
 H        -0.891048         2.105006         0.328157
 H         0.440292         1.472235        -0.566519
