19
Iteration:  4026charge 0 multiplicity 1
 C        -4.023265         0.689392        -1.650641
 C        -2.615892         0.280307        -1.491438
 C        -1.953679        -0.584632        -2.598176
 C        -2.235612        -1.145358        -1.135800
 C        -1.148054        -1.394767         0.016397
 C        -0.283161        -0.187467         0.544018
 O         0.842672        -0.416420         1.043982
 C        -0.826694         1.158310         0.163163
 O        -1.576398         1.272604        -1.112404
 H        -4.582870        -0.254023        -1.732610
 H        -4.288204         1.160292        -0.755824
 H        -4.165454         1.276305        -2.593093
 H        -2.602378        -0.932466        -3.371323
 H        -0.907175        -0.445082        -3.009719
 H        -3.142757        -1.887315        -1.147057
 H        -1.452083        -1.843452         0.980950
 H        -0.418127        -2.093014        -0.320333
 H        -1.463922         1.676045         0.918138
 H        -0.003913         1.884460         0.119140
