19
Iteration:   447charge 0 multiplicity 1
 C        -3.910325         0.502066        -1.909573
 C        -2.547891         0.155961        -1.465982
 C        -1.569411        -0.828351        -2.195491
 C        -2.257475        -1.219427        -0.879016
 C        -1.305891        -1.333847         0.305922
 C        -0.308932        -0.110003         0.288341
 O         0.890903        -0.144401         0.385985
 C        -0.837004         1.264429         0.058316
 O        -1.965846         1.328173        -0.771805
 H        -3.927928         1.363005        -2.578883
 H        -4.409085        -0.329668        -2.470054
 H        -4.579735         0.751700        -1.018362
 H        -1.976917        -1.326428        -3.118060
 H        -0.455313        -0.624895        -2.247930
 H        -2.997543        -2.011719        -0.813118
 H        -1.751980        -1.238395         1.279498
 H        -0.629684        -2.293024         0.352907
 H        -1.015204         1.795938         1.023791
 H        -0.031011         1.842499        -0.513498
