19
Iteration:  1070charge 0 multiplicity 1
 C        -3.938789         0.667778        -1.515656
 C        -2.519210         0.145274        -1.472797
 C        -1.821975        -0.893913        -2.530347
 C        -2.126823        -1.210151        -1.035200
 C        -1.268475        -1.242347         0.193089
 C        -0.269848        -0.099316         0.380883
 O         0.824062        -0.268164         0.850265
 C        -0.900420         1.252741         0.054948
 O        -1.705596         1.241604        -1.178964
 H        -3.881095         1.547856        -2.216822
 H        -4.696344        -0.078489        -1.867349
 H        -4.179750         0.986991        -0.498927
 H        -2.437451        -1.454940        -3.276094
 H        -0.884645        -0.505222        -2.814239
 H        -2.994113        -1.907424        -1.127800
 H        -1.950974        -0.990293         0.963282
 H        -0.871638        -2.219635         0.439357
 H        -1.449795         1.516335         1.029863
 H        -0.204431         2.117528        -0.121220
