19
Iteration:  1975
 C        -3.896706         0.868444        -1.766293
 C        -2.502855         0.220472        -1.441717
 C        -2.026098        -0.828855        -2.311992
 C        -2.197357        -1.138390        -0.800839
 C        -0.991838        -1.495928         0.118143
 C        -0.348639        -0.201163         0.374616
 O         0.789635        -0.127492         0.805991
 C        -1.046454         1.076639         0.132530
 O        -1.547686         1.237977        -1.255936
 H        -3.580359         1.854351        -2.147639
 H        -4.458673         0.320329        -2.578693
 H        -4.581822         1.018963        -0.920354
 H        -2.656043        -1.505177        -2.864225
 H        -1.074190        -0.612908        -2.863584
 H        -3.068593        -1.781957        -0.682789
 H        -1.406088        -1.872609         1.004800
 H        -0.366293        -2.238905        -0.341476
 H        -1.960970         1.075899         0.771201
 H        -0.398237         1.995552         0.322323
