19
Iteration:  4704
 C        -3.947110         0.593870        -1.680648
 C        -2.546857         0.343854        -1.398324
 C        -1.911614        -0.569528        -2.502568
 C        -2.161109        -1.110663        -1.036730
 C        -1.101545        -1.445216        -0.073650
 C        -0.333480        -0.269810         0.360526
 O         0.551381        -0.356886         1.200771
 C        -0.551046         1.048243        -0.294649
 O        -1.789417         1.424930        -0.796745
 H        -4.512979         0.050563        -2.442756
 H        -4.503914         0.718245        -0.788760
 H        -3.908313         1.670852        -2.073834
 H        -2.669739        -1.025343        -3.273728
 H        -0.902213        -0.476821        -2.924263
 H        -2.958012        -1.806257        -1.170121
 H        -1.660462        -1.924422         0.810500
 H        -0.273923        -2.225177        -0.315259
 H        -0.260337         1.848273         0.467107
 H         0.269755         1.030436        -1.056917
