19
Iteration:  3519charge 0 multiplicity 1
 C        -3.828054         0.790979        -1.037864
 C        -2.527658         0.174388        -1.337143
 C        -2.243866        -0.852038        -2.440407
 C        -1.967691        -1.227195        -1.082347
 C        -0.546885        -1.305381        -0.604153
 C        -0.386978        -0.184507         0.355059
 O        -0.163032        -0.352024         1.581328
 C        -0.561359         1.222390        -0.328428
 O        -1.497955         1.306771        -1.391792
 H        -4.262353         1.262549        -1.934450
 H        -4.661280         0.034643        -0.783731
 H        -3.762665         1.418470        -0.097050
 H        -3.035138        -1.359624        -2.919760
 H        -1.411517        -0.551843        -3.055989
 H        -2.698851        -1.793207        -0.577473
 H        -0.219311        -2.148130         0.028227
 H         0.155943        -1.212974        -1.498037
 H        -0.945578         1.997946         0.421789
 H         0.332182         1.678624        -0.743331
