19
Iteration:  1630charge 0 multiplicity 1
 C        -3.908453         1.035080        -1.538852
 C        -2.542227         0.166420        -1.505596
 C        -2.343977        -1.077231        -2.379135
 C        -2.202886        -1.240701        -0.925763
 C        -0.742467        -1.147389        -0.423838
 C        -0.313928        -0.134241         0.597161
 O         0.663356        -0.195365         1.338525
 C        -1.069335         1.244739         0.010287
 O        -1.386307         0.970094        -1.369318
 H        -3.490662         1.897972        -2.093186
 H        -4.791866         0.530319        -1.977541
 H        -4.250624         1.339283        -0.467930
 H        -3.162804        -1.712511        -2.683465
 H        -1.417841        -1.255680        -2.981773
 H        -2.921257        -1.804746        -0.325135
 H        -0.398425        -2.153726        -0.213516
 H        -0.140247        -0.812921        -1.274772
 H        -1.904320         1.371274         0.657193
 H        -0.279955         2.067341         0.009087
