19
Iteration:  3478
 C        -3.689116         0.762077        -1.002386
 C        -2.403154         0.231715        -1.476524
 C        -2.481344        -0.839297        -2.504342
 C        -2.032441        -1.197243        -1.126927
 C        -0.618509        -1.299341        -0.606763
 C        -0.391965        -0.120764         0.436640
 O         0.040245        -0.187722         1.580411
 C        -0.909928         1.216209        -0.114411
 O        -1.256151         1.062370        -1.503335
 H        -3.704293         1.832221        -1.087545
 H        -4.635310         0.336006        -1.454560
 H        -3.743312         0.615008         0.048790
 H        -3.399379        -1.214579        -2.967522
 H        -1.650281        -0.816249        -3.289784
 H        -2.729523        -1.723362        -0.522156
 H        -0.490938        -2.364526        -0.400097
 H         0.235741        -0.989343        -1.295320
 H        -1.749082         1.316397         0.566215
 H        -0.178478         2.000993         0.067207
