19
Iteration:  3610
 C        -3.919438         0.714078        -0.898967
 C        -2.473816         0.213331        -1.405156
 C        -2.087039        -0.701076        -2.620710
 C        -1.982501        -1.189006        -1.239758
 C        -0.626345        -1.508387        -0.466123
 C        -0.416980        -0.226522         0.363044
 O        -0.121780        -0.182116         1.531643
 C        -0.548819         1.173906        -0.310045
 O        -1.564904         1.316458        -1.284893
 H        -4.808018         0.297861        -1.408355
 H        -3.934459         0.692374         0.229655
 H        -3.698741         1.734319        -1.120733
 H        -2.967919        -1.305648        -3.101097
 H        -1.201306        -0.367490        -3.205217
 H        -2.740647        -1.970794        -0.921336
 H        -0.724306        -2.409296         0.203203
 H         0.118718        -1.656305        -1.322928
 H        -0.635234         1.831286         0.527931
 H         0.401229         1.325197        -0.728537
