19
Iteration:  1457charge 0 multiplicity 1
 C        -3.659819         0.622860        -0.814796
 C        -2.395641         0.170762        -1.437163
 C        -2.431745        -1.004240        -2.309423
 C        -2.015212        -1.098526        -0.814947
 C        -0.582006        -1.147703        -0.675399
 C        -0.399870        -0.095863         0.313028
 O        -0.493392        -0.227865         1.536426
 C        -0.449300         1.281092        -0.456035
 O        -1.297906         1.126286        -1.619785
 H        -3.733079         1.689000        -0.944778
 H        -4.533801         0.323076        -1.381187
 H        -3.877326         0.421655         0.269397
 H        -3.361136        -1.519250        -2.639425
 H        -1.701501        -1.029933        -3.095750
 H        -2.572593        -1.571727         0.072372
 H        -0.139387        -2.112782        -0.314693
 H         0.045680        -0.793675        -1.607187
 H        -0.655425         2.133118         0.257215
 H         0.552497         1.373335        -0.787044
