19
Iteration:   415charge 0 multiplicity 1
 C        -3.861348         0.428797        -2.031947
 C        -2.500515         0.159218        -1.454798
 C        -1.891614        -0.944608        -2.287756
 C        -2.288728        -1.117005        -0.693659
 C        -1.063298        -1.194193         0.085852
 C        -0.170646        -0.047179         0.190540
 O         0.971820        -0.294810         0.658268
 C        -0.943578         1.300683         0.117792
 O        -2.026339         1.378944        -0.826105
 H        -3.836019         1.502553        -2.057775
 H        -3.956824        -0.124047        -2.988062
 H        -4.667440         0.254542        -1.205901
 H        -2.576781        -1.341583        -3.077268
 H        -0.775617        -1.130006        -2.562720
 H        -3.163176        -1.740036        -0.403817
 H        -1.351871        -1.156719         1.161057
 H        -0.349987        -2.124867        -0.091175
 H        -1.332379         1.357985         1.129751
 H        -0.293483         2.167150        -0.173194
