19
Iteration:  3147charge 0 multiplicity 1
 C        -3.878809         0.718659        -2.084028
 C        -2.437027         0.263696        -1.446575
 C        -1.710325        -0.782128        -2.174322
 C        -2.264710        -1.085324        -0.785373
 C        -1.276337        -1.448886         0.354032
 C        -0.270791        -0.266549         0.334883
 O         0.935401        -0.240365         0.225443
 C        -1.097739         1.110055         0.388920
 O        -1.761278         1.353193        -0.939356
 H        -3.947222         1.840334        -2.150097
 H        -3.994610         0.303725        -3.050813
 H        -4.824736         0.420882        -1.601376
 H        -2.046987        -1.364396        -3.086337
 H        -0.647950        -0.559031        -2.237992
 H        -3.256077        -1.668127        -0.656377
 H        -1.716932        -1.397431         1.330462
 H        -0.666182        -2.375739         0.279133
 H        -1.900645         1.008978         1.146917
 H        -0.357566         1.908192         0.542778
