19
Iteration:  1364
 C        -3.823939         0.727463        -1.209543
 C        -2.465827         0.235339        -1.570796
 C        -2.274318        -1.003372        -2.512770
 C        -2.196825        -1.158228        -1.025152
 C        -0.853068        -1.241792        -0.323961
 C        -0.414468        -0.089557         0.496294
 O         0.403653        -0.178524         1.386259
 C        -0.767555         1.213532        -0.075943
 O        -1.389721         1.151594        -1.406904
 H        -4.414377         1.309877        -1.967408
 H        -4.440076        -0.191471        -1.157134
 H        -3.980999         1.253094        -0.293602
 H        -3.183523        -1.424175        -3.040419
 H        -1.387934        -1.155388        -3.128464
 H        -2.997527        -1.634977        -0.494529
 H        -0.881592        -2.215762         0.147023
 H        -0.084669        -1.366184        -1.068735
 H        -1.338044         1.946453         0.528618
 H         0.227465         1.742611        -0.368557
