19
Iteration:  1259
 C        -3.876884         0.615594        -1.846172
 C        -2.444396         0.238974        -1.453259
 C        -1.765261        -0.859127        -2.279946
 C        -2.296874        -1.168806        -0.879056
 C        -1.265345        -1.223342         0.299116
 C        -0.346725        -0.084127         0.310987
 O         0.830782        -0.369027         0.424588
 C        -0.980168         1.224097         0.255641
 O        -1.614334         1.291641        -1.015670
 H        -3.916979         1.559437        -2.434892
 H        -4.363858        -0.088631        -2.547234
 H        -4.572223         0.671389        -0.958003
 H        -2.232407        -1.389748        -3.134252
 H        -0.739486        -0.626688        -2.384681
 H        -3.143446        -1.818769        -0.806339
 H        -1.937150        -1.198071         1.189622
 H        -0.633063        -2.151800         0.257275
 H        -1.669531         1.320540         1.164215
 H        -0.347000         2.073803         0.368426
