19
Iteration:   387
 C        -4.082710         0.615461        -1.967329
 C        -2.668684         0.201457        -1.405567
 C        -1.904390        -0.874100        -2.217450
 C        -2.266088        -1.257769        -0.753412
 C        -1.030337        -1.412551         0.116234
 C        -0.146485        -0.139981         0.391958
 O         1.009089        -0.001478         0.733151
 C        -0.923702         1.163340         0.056576
 O        -1.799761         1.310797        -1.099686
 H        -3.983640         1.733927        -1.930887
 H        -4.161253         0.359080        -3.041125
 H        -4.841341         0.155223        -1.410015
 H        -2.368958        -1.466527        -3.023970
 H        -0.894074        -0.656526        -2.376250
 H        -3.174517        -1.970278        -0.746156
 H        -1.413667        -1.849127         1.081619
 H        -0.311867        -2.065173        -0.269246
 H        -1.501616         1.306876         1.055613
 H        -0.234163         1.996992         0.030228
