19
Iteration:  3999
 C        -3.881598         0.776597        -1.502041
 C        -2.502575         0.289997        -1.432225
 C        -1.884981        -0.744820        -2.519532
 C        -2.163053        -1.153342        -1.104146
 C        -1.131779        -1.391308        -0.107708
 C        -0.340314        -0.180217         0.346894
 O         0.693359        -0.345020         0.943170
 C        -1.063825         1.109362         0.207967
 O        -1.465012         1.274811        -1.122216
 H        -4.529707        -0.105482        -1.573590
 H        -4.188936         1.318175        -0.543435
 H        -4.091560         1.410283        -2.363388
 H        -2.666366        -1.137553        -3.241141
 H        -0.952797        -0.609905        -2.989813
 H        -3.086668        -1.627646        -0.979910
 H        -1.505879        -1.495823         0.932434
 H        -0.521787        -2.341807        -0.181881
 H        -1.975103         1.351736         0.843566
 H        -0.314886         1.916374         0.444640
