19
Iteration:   380
 C        -4.056426         0.645192        -1.887378
 C        -2.609466         0.139805        -1.407981
 C        -1.927130        -0.837005        -2.233473
 C        -2.281299        -1.267192        -0.774557
 C        -1.045706        -1.443761         0.152669
 C        -0.188754        -0.139893         0.396174
 O         0.986445         0.057455         0.743463
 C        -0.971520         1.135264         0.037011
 O        -1.738450         1.288816        -1.163689
 H        -4.036734         1.753635        -1.750675
 H        -4.289256         0.504687        -2.939246
 H        -4.909491         0.211655        -1.314546
 H        -2.313960        -1.341882        -3.095790
 H        -0.875740        -0.521580        -2.314839
 H        -2.999710        -2.021748        -0.764316
 H        -1.358341        -1.929444         1.052341
 H        -0.286156        -2.230776        -0.308905
 H        -1.599395         1.372685         0.892063
 H        -0.140090         1.916738         0.033682
