19
Iteration:  2361
 C        -3.905300         0.744884        -1.494822
 C        -2.527916         0.249036        -1.446450
 C        -2.148593        -0.851055        -2.351448
 C        -2.115286        -1.150118        -0.854164
 C        -0.805288        -1.533423        -0.230719
 C        -0.351269        -0.143250         0.437074
 O         0.598221        -0.109641         1.192621
 C        -1.020832         1.231757        -0.055516
 O        -1.518771         1.159867        -1.380463
 H        -3.652836         1.759125        -1.773909
 H        -4.456319         0.401253        -2.349604
 H        -4.476687         0.781535        -0.558794
 H        -2.877500        -1.302734        -2.977604
 H        -1.193788        -0.762082        -2.820464
 H        -3.012998        -1.659254        -0.560958
 H        -0.856160        -2.235505         0.617049
 H        -0.049733        -1.777908        -1.059328
 H        -1.843331         1.556024         0.566504
 H        -0.166683         1.894160         0.036911
