19
Iteration:  1126charge 0 multiplicity 1
 C        -3.772466         0.643322        -2.146701
 C        -2.461016         0.254641        -1.357644
 C        -1.783298        -0.846784        -2.015677
 C        -2.363277        -1.143131        -0.655332
 C        -1.161577        -1.364424         0.234721
 C        -0.259396        -0.146295         0.295232
 O         0.928169        -0.354104         0.267987
 C        -1.177909         1.213043         0.283235
 O        -1.762810         1.429151        -1.010479
 H        -3.652162         1.492317        -2.922256
 H        -4.235614        -0.220355        -2.714340
 H        -4.453043         1.057688        -1.391246
 H        -2.117762        -1.444839        -2.862004
 H        -0.648740        -0.863976        -2.015459
 H        -3.236618        -1.784369        -0.554776
 H        -1.298618        -1.529264         1.265199
 H        -0.551065        -2.258501        -0.045021
 H        -1.940345         0.907391         1.067329
 H        -0.571045         2.159288         0.543168
