19
Iteration:  3871
 C        -3.895439         0.735190        -1.596544
 C        -2.449412         0.261671        -1.445568
 C        -1.974551        -0.646280        -2.445520
 C        -2.250328        -1.166803        -0.984884
 C        -0.989219        -1.490648        -0.215375
 C        -0.272344        -0.247265         0.350548
 O         0.691036        -0.367866         1.125140
 C        -1.024909         1.124438         0.128729
 O        -1.563894         1.376792        -1.185464
 H        -4.782729         0.071754        -1.574965
 H        -4.057367         1.491713        -0.735330
 H        -3.932778         1.447304        -2.402289
 H        -2.721779        -0.911274        -3.257065
 H        -0.920845        -0.559784        -2.738054
 H        -3.219163        -1.567838        -0.793065
 H        -1.338436        -1.979329         0.711405
 H        -0.286674        -2.073180        -0.783338
 H        -1.875161         1.137295         0.764081
 H        -0.425983         1.985766         0.437282
