19
Iteration:  4784
 C        -3.970463         0.749735        -1.737303
 C        -2.538916         0.305713        -1.380215
 C        -1.831535        -0.480261        -2.441638
 C        -2.161000        -1.207285        -1.101435
 C        -1.176429        -1.576634        -0.010151
 C        -0.264203        -0.357421         0.328658
 O         0.651560        -0.245030         1.188152
 C        -0.572329         1.033824        -0.269656
 O        -1.910899         1.378046        -0.809477
 H        -4.561887        -0.128317        -1.917879
 H        -4.510557         1.367709        -0.909487
 H        -3.872693         1.427636        -2.488591
 H        -2.356596        -0.874202        -3.255420
 H        -0.771463        -0.276126        -2.771508
 H        -3.072662        -1.867389        -1.003121
 H        -1.742259        -1.885177         0.901440
 H        -0.429881        -2.295271        -0.383834
 H        -0.269235         1.794789         0.450112
 H         0.093786         1.031997        -1.157753
