19
Iteration:  1394charge 0 multiplicity 1
 C        -3.679204         0.944471        -0.987152
 C        -2.497302         0.161013        -1.467587
 C        -2.400306        -0.876736        -2.536634
 C        -2.060158        -1.290798        -0.990463
 C        -0.573396        -1.354863        -0.443742
 C        -0.322106        -0.072662         0.389150
 O         0.097639        -0.073414         1.543782
 C        -0.944125         1.164042        -0.208715
 O        -1.331151         0.992429        -1.571615
 H        -3.682582         1.839628        -1.664293
 H        -4.581632         0.291780        -1.168136
 H        -3.751494         1.223400         0.122050
 H        -3.389018        -1.307018        -2.877950
 H        -1.558234        -0.765223        -3.217154
 H        -2.827532        -1.878497        -0.417243
 H        -0.505434        -2.286437         0.036711
 H         0.074155        -1.370695        -1.321079
 H        -1.850800         1.454363         0.317907
 H        -0.286967         2.027065        -0.262596
