19
Iteration:  2954charge 0 multiplicity 1
 C        -3.779291         0.749598        -1.088770
 C        -2.447288         0.111281        -1.455465
 C        -2.325623        -0.941975        -2.530354
 C        -2.076893        -1.193854        -0.960396
 C        -0.696325        -1.278417        -0.514374
 C        -0.365906        -0.051928         0.435680
 O         0.061969        -0.112517         1.551235
 C        -0.699926         1.207200        -0.222410
 O        -1.401884         1.097596        -1.466583
 H        -3.929316         1.591542        -1.823853
 H        -4.692365         0.154260        -1.259342
 H        -3.865401         0.986587        -0.004525
 H        -3.173856        -1.406923        -2.973055
 H        -1.405194        -0.910383        -3.166201
 H        -2.955286        -1.707770        -0.459007
 H        -0.384252        -2.283137        -0.071694
 H        -0.073648        -1.027235        -1.359317
 H        -1.416135         1.794404         0.434780
 H         0.207926         1.853008        -0.471384
