19
Iteration:   540
 C        -3.854262         0.472930        -2.036318
 C        -2.559633         0.159622        -1.370128
 C        -1.533522        -0.616685        -2.179806
 C        -2.127381        -1.224965        -0.914380
 C        -1.324787        -1.216351         0.394743
 C        -0.268161        -0.155485         0.251103
 O         0.914130        -0.303473         0.422825
 C        -0.806130         1.213458        -0.242333
 O        -2.179900         1.300196        -0.471158
 H        -3.761199         0.538453        -3.170412
 H        -4.641468        -0.327490        -1.875829
 H        -4.333438         1.336833        -1.598775
 H        -1.849241        -0.994339        -3.099777
 H        -0.501533        -0.309527        -2.269812
 H        -2.874320        -1.978814        -1.093532
 H        -2.152774        -0.896236         1.175798
 H        -0.993468        -2.218231         0.588224
 H        -0.549738         1.911463         0.563860
 H        -0.222734         1.432571        -1.110018
