19
Iteration:   364
 C        -3.967031         0.689649        -1.615976
 C        -2.588936         0.168038        -1.438172
 C        -1.873804        -0.901115        -2.331568
 C        -2.169725        -1.209533        -0.846159
 C        -1.006611        -1.444144         0.159233
 C        -0.282427        -0.102064         0.324397
 O         0.818313         0.042721         0.765284
 C        -1.063340         1.193499         0.026722
 O        -1.642721         1.153448        -1.244967
 H        -3.909714         1.760395        -1.373040
 H        -4.217154         0.620109        -2.699206
 H        -4.648586         0.065075        -1.056223
 H        -2.494974        -1.366125        -3.115541
 H        -0.844075        -0.648420        -2.614281
 H        -3.156602        -1.785785        -0.663402
 H        -1.383502        -1.667095         1.207267
 H        -0.375230        -2.209182        -0.166914
 H        -1.780237         1.383305         0.915407
 H        -0.379852         2.014858         0.047008
