19
Iteration:  2883charge 0 multiplicity 1
 C        -3.549625         0.727402        -0.569913
 C        -2.402330         0.163723        -1.378431
 C        -2.427135        -0.986922        -2.445260
 C        -1.905741        -1.314020        -0.994942
 C        -0.403007        -1.256718        -0.643128
 C        -0.520001        -0.057610         0.278624
 O        -0.652019        -0.075346         1.528255
 C        -0.541107         1.301051        -0.425762
 O        -1.294144         1.087770        -1.645970
 H        -3.630645         1.726669        -0.972717
 H        -4.579001         0.350747        -0.779968
 H        -3.393614         0.614301         0.502799
 H        -3.479170        -1.417268        -2.757938
 H        -1.659005        -1.039495        -3.279433
 H        -2.637074        -1.798153        -0.350133
 H         0.010349        -2.116085        -0.099542
 H         0.111280        -1.032474        -1.599991
 H        -0.945420         2.099184         0.269043
 H         0.484203         1.520764        -0.747591
