19
Iteration:  4221
 C        -4.005165         0.646243        -1.815617
 C        -2.617136         0.248986        -1.370939
 C        -1.881931        -0.492063        -2.487363
 C        -2.154088        -1.173797        -1.040340
 C        -1.129803        -1.401405         0.066431
 C        -0.300226        -0.254799         0.451080
 O         0.710813        -0.391796         1.113921
 C        -0.609674         1.134101        -0.236834
 O        -1.801402         1.321168        -0.848852
 H        -4.426324         0.074457        -2.671935
 H        -4.774947         0.720345        -0.982002
 H        -4.035484         1.694545        -2.271027
 H        -2.407824        -1.139975        -3.185372
 H        -1.114176         0.075075        -3.021798
 H        -3.004092        -1.948462        -1.113851
 H        -1.670010        -1.925116         0.913821
 H        -0.513730        -2.221711        -0.313809
 H        -0.334379         1.935113         0.571000
 H         0.291301         1.408863        -0.780735
