19
Iteration:  2264charge 0 multiplicity 1
 C        -3.656664         0.748995        -0.946717
 C        -2.474611         0.093261        -1.495050
 C        -2.361465        -0.985587        -2.503856
 C        -2.037197        -1.254076        -0.987930
 C        -0.560632        -1.313533        -0.562932
 C        -0.289676        -0.024956         0.375746
 O        -0.121400        -0.075002         1.586157
 C        -0.741866         1.260799        -0.260578
 O        -1.449389         1.124030        -1.519410
 H        -4.038284         1.381522        -1.774601
 H        -4.414762         0.097962        -0.455119
 H        -3.339523         1.549493        -0.189066
 H        -3.264210        -1.297356        -3.023600
 H        -1.491895        -1.032532        -3.066970
 H        -2.876389        -1.759189        -0.534731
 H        -0.626164        -2.103257         0.201216
 H         0.097251        -1.534860        -1.407668
 H        -1.295115         1.774055         0.599657
 H         0.019174         1.870988        -0.679573
