19
Iteration:  4479
 C        -3.894880         0.627636        -1.914622
 C        -2.419686         0.286905        -1.423644
 C        -1.444126        -0.549161        -2.197316
 C        -2.239931        -1.127411        -0.948273
 C        -1.415855        -1.344397         0.266773
 C        -0.404304        -0.277956         0.274707
 O         0.769617        -0.455330         0.520727
 C        -0.771096         1.139246        -0.096416
 O        -1.968683         1.368981        -0.656438
 H        -4.531300        -0.172282        -2.346745
 H        -4.470862         1.192231        -1.086097
 H        -3.831146         1.323766        -2.681728
 H        -1.683615        -0.953036        -3.208163
 H        -0.333165        -0.332780        -2.115491
 H        -3.030922        -1.863250        -1.222911
 H        -2.004947        -1.633622         1.129836
 H        -0.954352        -2.420895         0.241187
 H        -0.785497         1.713759         0.803993
 H         0.069366         1.501609        -0.712211
