19
Iteration:  1909
 C        -3.877231         0.623102        -1.683392
 C        -2.455847         0.264836        -1.505417
 C        -1.679840        -0.748550        -2.337856
 C        -2.161755        -1.070799        -0.915531
 C        -1.335237        -1.348809         0.353521
 C        -0.380312        -0.195970         0.465884
 O         0.828758        -0.375070         0.435303
 C        -1.099183         1.168539         0.168619
 O        -1.603380         1.350051        -1.170775
 H        -4.059512         1.178380        -2.621588
 H        -4.470538        -0.332276        -1.579711
 H        -4.221266         1.208828        -0.789476
 H        -2.225520        -1.284646        -3.137449
 H        -0.638959        -0.611806        -2.576761
 H        -3.116572        -1.656245        -0.876481
 H        -1.888198        -1.277158         1.236733
 H        -0.680939        -2.216536         0.388374
 H        -1.884894         1.146212         0.927257
 H        -0.346596         1.972166         0.384621
