19
Iteration:  1011
 C        -3.862731         0.663541        -1.290938
 C        -2.435840         0.242206        -1.520065
 C        -2.250774        -0.899356        -2.511126
 C        -2.182909        -1.148323        -1.023756
 C        -0.890287        -1.440945        -0.226658
 C        -0.367257        -0.145693         0.444758
 O         0.442861         0.012823         1.315632
 C        -0.778063         1.127599        -0.074254
 O        -1.429906         1.193908        -1.376493
 H        -4.240466         1.406040        -1.921651
 H        -4.544053        -0.133870        -1.422467
 H        -4.026839         1.024336        -0.276563
 H        -3.157720        -1.198244        -3.036769
 H        -1.378360        -0.870683        -3.209951
 H        -2.993518        -1.736067        -0.639544
 H        -1.012766        -2.227572         0.582445
 H        -0.048534        -1.739510        -0.849456
 H        -1.462452         1.671596         0.625327
 H         0.063637         1.747459        -0.292530
