19
Iteration:  2417charge 0 multiplicity 1
 C        -3.829244         0.749853        -1.475188
 C        -2.456980         0.126933        -1.538539
 C        -1.969265        -0.825474        -2.572445
 C        -2.133337        -1.265935        -1.021794
 C        -1.170083        -1.354479         0.132186
 C        -0.316999        -0.097083         0.380508
 O         0.782736        -0.172110         0.878607
 C        -1.061207         1.198269         0.132438
 O        -1.602892         1.253174        -1.197409
 H        -4.106600         1.196750        -2.412201
 H        -4.607877        -0.024297        -1.307113
 H        -3.887332         1.499049        -0.663910
 H        -2.665660        -1.192037        -3.329276
 H        -0.902721        -0.779322        -2.887023
 H        -3.013313        -1.856472        -0.891624
 H        -1.610322        -1.525886         1.139190
 H        -0.450080        -2.278150         0.149593
 H        -1.889034         1.392035         0.808905
 H        -0.300357         1.921066         0.196279
