19
Iteration:  3835charge 0 multiplicity 1
 C        -4.070953         0.674561        -1.389685
 C        -2.540930         0.272819        -1.565320
 C        -1.934527        -0.641771        -2.644750
 C        -2.113270        -1.071795        -1.237987
 C        -1.104731        -1.401964        -0.151875
 C        -0.330264        -0.208438         0.467048
 O         0.621377        -0.340106         1.210437
 C        -0.775497         1.217483         0.112830
 O        -1.548122         1.181576        -1.119677
 H        -4.836896        -0.088510        -1.459936
 H        -3.957738         1.227301        -0.413123
 H        -4.299189         1.351710        -2.183333
 H        -2.716003        -1.019237        -3.291579
 H        -0.986124        -0.385563        -3.204066
 H        -2.933190        -1.811528        -1.145150
 H        -1.566115        -1.835984         0.794923
 H        -0.334559        -2.278152        -0.285224
 H        -1.281883         1.781402         0.914660
 H         0.372608         1.534653        -0.100106
