19
Iteration:  2843
 C        -3.820311         0.656474        -0.763329
 C        -2.395363         0.151182        -1.302561
 C        -2.433964        -0.879649        -2.331756
 C        -1.946420        -1.194759        -0.950276
 C        -0.281727        -1.349238        -0.560754
 C        -0.334538        -0.070470         0.282141
 O        -0.725480        -0.162715         1.455097
 C        -0.300111         1.258198        -0.543425
 O        -1.411989         1.214692        -1.533754
 H        -4.300250         1.258311        -1.580621
 H        -4.405835        -0.193172        -0.426451
 H        -3.720114         1.319972         0.132229
 H        -3.397603        -1.288451        -2.742385
 H        -1.768388        -0.953705        -3.154696
 H        -2.504582        -1.743153        -0.240882
 H         0.012680        -2.249250        -0.153577
 H         0.412948        -1.098680        -1.390350
 H        -0.463295         2.164770         0.111993
 H         0.634696         1.125293        -1.096191
