19
Iteration:  3683
 C        -3.800618         0.908925        -1.204217
 C        -2.427016         0.230730        -1.536716
 C        -2.258919        -0.870224        -2.505232
 C        -2.060897        -1.151430        -1.016476
 C        -0.637430        -1.257192        -0.664622
 C        -0.341597        -0.174570         0.423967
 O         0.175182        -0.360354         1.488533
 C        -1.023291         1.134529         0.017062
 O        -1.364841         1.169583        -1.334323
 H        -4.380464         0.154616        -0.660242
 H        -3.673628         1.859499        -0.543649
 H        -4.238187         1.303994        -2.117472
 H        -3.251391        -1.301211        -2.779965
 H        -1.422378        -0.916975        -3.177739
 H        -2.800229        -1.754066        -0.419216
 H        -0.270702        -2.191610        -0.228828
 H        -0.021524        -1.121883        -1.544740
 H        -1.928230         1.245519         0.774959
 H        -0.196987         1.949831         0.228327
