19
Iteration:  2281charge 0 multiplicity 1
 C        -3.861256         0.753634        -1.036640
 C        -2.449414         0.215740        -1.424512
 C        -2.316522        -0.937910        -2.406987
 C        -2.040902        -1.197026        -0.971593
 C        -0.621318        -1.328629        -0.504721
 C        -0.399925        -0.104794         0.363537
 O         0.009300        -0.068099         1.498812
 C        -0.787765         1.250798        -0.258265
 O        -1.295533         1.034252        -1.550800
 H        -4.285377         1.505031        -1.718617
 H        -4.478637        -0.133822        -1.000890
 H        -3.894782         1.141842        -0.041921
 H        -3.186360        -1.437661        -2.834579
 H        -1.482022        -0.820259        -3.164235
 H        -2.736117        -1.779536        -0.286878
 H        -0.281794        -2.213772         0.028587
 H         0.158495        -1.131727        -1.339608
 H        -1.499978         1.760872         0.363816
 H         0.169926         1.859108        -0.145098
