19
Iteration:  1913
 C        -3.872106         0.625593        -1.658874
 C        -2.420712         0.279715        -1.518574
 C        -1.686883        -0.774726        -2.362283
 C        -2.180907        -1.101148        -0.907400
 C        -1.311546        -1.289889         0.317254
 C        -0.398720        -0.180225         0.397388
 O         0.835525        -0.387596         0.464220
 C        -1.111291         1.188124         0.194981
 O        -1.602062         1.303850        -1.142349
 H        -4.112813         1.190348        -2.606236
 H        -4.503929        -0.304578        -1.655244
 H        -4.240095         1.227999        -0.818871
 H        -2.304603        -1.264337        -3.114766
 H        -0.602064        -0.544486        -2.603762
 H        -3.070677        -1.671971        -0.917633
 H        -1.896009        -1.159608         1.331854
 H        -0.746834        -2.221150         0.438757
 H        -1.891668         1.165853         0.966598
 H        -0.378905         1.984532         0.417655
