19
Iteration:  1858charge 0 multiplicity 1
 C        -3.753714         0.681432        -1.934931
 C        -2.469879         0.177400        -1.448613
 C        -1.767722        -0.915638        -2.200742
 C        -2.369444        -1.143563        -0.801552
 C        -1.341411        -1.233752         0.207650
 C        -0.288542        -0.115102         0.288776
 O         0.947071        -0.343011         0.385683
 C        -1.008793         1.211018         0.268338
 O        -1.781413         1.313461        -0.943567
 H        -3.385839         1.365059        -2.732399
 H        -4.441743        -0.107921        -2.331013
 H        -4.245446         1.284957        -1.186859
 H        -2.166477        -1.208889        -3.202961
 H        -0.672035        -0.756285        -2.342036
 H        -3.208248        -1.769396        -0.593119
 H        -1.816098        -1.309164         1.275751
 H        -0.664323        -2.059001         0.083972
 H        -1.592654         1.038516         1.196839
 H        -0.271832         2.085039         0.357235
