19
Iteration:  1806charge 0 multiplicity 1
 C        -3.736225         0.792275        -2.104078
 C        -2.586752         0.189046        -1.378943
 C        -1.878871        -0.867594        -2.174659
 C        -2.404688        -1.141393        -0.712387
 C        -1.217629        -1.459619         0.244700
 C        -0.231977        -0.188451         0.270413
 O         0.957972        -0.211672         0.500195
 C        -0.944879         1.200155         0.129207
 O        -1.834071         1.301084        -0.935056
 H        -3.441814         1.818958        -2.324193
 H        -3.773892         0.306094        -3.061001
 H        -4.563864         0.891406        -1.375262
 H        -2.418691        -1.485233        -2.915015
 H        -0.761562        -0.733166        -2.200052
 H        -3.193321        -1.866124        -0.634962
 H        -1.474422        -1.699931         1.254413
 H        -0.581330        -2.299308        -0.101525
 H        -1.429196         1.443364         1.148253
 H        -0.145717         1.935517         0.029286
