19
Iteration:  2628charge 0 multiplicity 1
 C        -3.949428         0.739474        -1.601576
 C        -2.497720         0.193836        -1.552242
 C        -1.685380        -0.735125        -2.375208
 C        -2.152166        -1.180596        -0.950421
 C        -1.181417        -1.433522         0.202874
 C        -0.322233        -0.227894         0.386146
 O         0.830417        -0.259391         0.697096
 C        -1.100286         1.175931         0.100006
 O        -1.718815         1.345927        -1.159850
 H        -4.205210         1.254061        -2.551676
 H        -4.722014         0.056342        -1.325389
 H        -3.905165         1.416687        -0.732269
 H        -2.178558        -1.210920        -3.182924
 H        -0.709533        -0.470095        -2.712633
 H        -2.890851        -1.958972        -0.929858
 H        -1.611547        -1.631789         1.246582
 H        -0.578209        -2.337123         0.178814
 H        -1.871036         1.199299         0.941903
 H        -0.255713         1.948152         0.100797
