19
Iteration:   320charge 0 multiplicity 1
 C        -3.818500         0.565088        -1.189027
 C        -2.412340         0.126634        -1.604602
 C        -2.160572        -0.988154        -2.593602
 C        -2.147085        -1.200350        -1.039699
 C        -1.061243        -1.312427         0.044781
 C        -0.356584         0.100581         0.475761
 O         0.759193         0.057703         0.990592
 C        -1.164224         1.299961         0.002159
 O        -1.364493         1.014637        -1.394973
 H        -3.784050         0.913001        -0.135144
 H        -4.305612         1.382255        -1.800721
 H        -4.508330        -0.314764        -1.232132
 H        -3.015469        -1.486517        -3.027296
 H        -1.094719        -1.029010        -3.042625
 H        -3.106371        -1.714775        -0.601023
 H        -1.580659        -1.613357         1.016903
 H        -0.350945        -2.038752        -0.249142
 H        -2.194698         1.417148         0.543353
 H        -0.717131         2.269970        -0.009251
