19
Iteration:  2933
 C        -3.639173         0.862121        -0.862893
 C        -2.474742         0.142410        -1.476797
 C        -2.424837        -0.948278        -2.492981
 C        -1.989448        -1.329002        -1.106555
 C        -0.540052        -1.285333        -0.549017
 C        -0.442235        -0.050326         0.455942
 O        -0.114219        -0.064917         1.607621
 C        -0.833139         1.268781        -0.275287
 O        -1.289262         1.010786        -1.608210
 H        -3.870694         1.935905        -1.112950
 H        -4.574079         0.307385        -1.052950
 H        -3.543193         0.558727         0.197145
 H        -3.316821        -1.308014        -2.934161
 H        -1.779571        -0.858304        -3.386954
 H        -2.764843        -1.873252        -0.471244
 H        -0.306761        -2.268914         0.025370
 H         0.249461        -1.086974        -1.273346
 H        -1.569883         1.884359         0.304461
 H         0.230339         1.679137        -0.435547
