19
Iteration:  3969
 C        -3.760878         0.980609        -1.476704
 C        -2.491035         0.298326        -1.625317
 C        -1.917504        -0.818397        -2.501305
 C        -2.223641        -1.192712        -1.053775
 C        -1.085964        -1.594830        -0.105219
 C        -0.406182        -0.210115         0.496934
 O         0.788941        -0.136346         0.874963
 C        -1.250894         1.032491         0.240108
 O        -1.443604         1.211585        -1.136485
 H        -4.653633         0.418313        -1.672970
 H        -3.888830         1.220640        -0.413534
 H        -3.860634         1.896737        -1.884381
 H        -2.597788        -1.248705        -3.288160
 H        -0.889257        -0.601678        -2.748315
 H        -3.186394        -1.321066        -0.690433
 H        -1.324456        -2.169316         0.807394
 H        -0.343160        -2.076425        -0.685583
 H        -2.270894         0.895503         0.728538
 H        -0.674099         1.868671         0.485146
