19
Iteration:  1194charge 0 multiplicity 1
 C        -3.581884         0.696037        -2.011830
 C        -2.444070         0.106957        -1.401824
 C        -1.594365        -0.905601        -2.094847
 C        -2.280459        -1.216656        -0.799018
 C        -1.363616        -1.329364         0.418138
 C        -0.370607        -0.055986         0.410490
 O         0.682770        -0.330530        -0.167443
 C        -1.124192         1.335826         0.449866
 O        -1.697986         1.330473        -0.861648
 H        -3.236341         1.242900        -2.936317
 H        -4.212640        -0.144062        -2.387248
 H        -4.070528         1.374854        -1.232854
 H        -1.939157        -1.386206        -3.019962
 H        -0.534386        -0.814950        -2.105287
 H        -3.173814        -1.807178        -0.804177
 H        -2.008641        -1.390008         1.218709
 H        -0.724713        -2.213456         0.487349
 H        -1.979602         1.337032         1.212601
 H        -0.577357         2.260247         0.517366
