19
Iteration:  4402
 C        -3.838115         0.845381        -2.138579
 C        -2.592159         0.215957        -1.388149
 C        -1.499520        -0.584832        -2.227909
 C        -2.231232        -1.213183        -1.010380
 C        -1.410240        -1.271351         0.391835
 C        -0.219653        -0.257672         0.318596
 O         0.959194        -0.468206         0.552192
 C        -0.728760         1.129234        -0.165619
 O        -2.186594         1.252990        -0.514412
 H        -4.149981         0.178361        -2.968748
 H        -4.738475         0.742495        -1.446289
 H        -3.610639         1.818342        -2.392781
 H        -1.882531        -1.008936        -3.160863
 H        -0.352197        -0.546125        -2.027300
 H        -2.997145        -1.935771        -1.214795
 H        -1.996669        -0.963025         1.258969
 H        -1.386922        -2.435354         0.607256
 H        -0.705530         1.848548         0.601495
 H        -0.123084         1.407594        -1.047421
