19
Iteration:  1619charge 0 multiplicity 1
 C        -3.823500         1.070980        -1.448187
 C        -2.657906         0.080605        -1.526420
 C        -2.353315        -1.142345        -2.404999
 C        -2.133504        -1.172765        -0.875403
 C        -0.696335        -1.159863        -0.455678
 C        -0.352441        -0.114151         0.550824
 O         0.549607        -0.155578         1.381060
 C        -0.989909         1.132535         0.016713
 O        -1.407089         0.965732        -1.412758
 H        -3.613881         1.976776        -2.046189
 H        -4.778213         0.693912        -1.849053
 H        -3.925334         1.387645        -0.352522
 H        -3.143136        -1.527750        -3.011208
 H        -1.412580        -0.972080        -2.982096
 H        -2.774331        -1.809218        -0.251201
 H        -0.127693        -2.060594        -0.307571
 H        -0.182590        -0.582782        -1.234385
 H        -1.810548         1.612297         0.468163
 H        -0.240846         1.993527        -0.039772
