19
Iteration:  2567charge 0 multiplicity 1
 C        -3.836136         0.562404        -1.847198
 C        -2.447751         0.285441        -1.468421
 C        -1.746413        -0.866040        -2.385921
 C        -2.167075        -1.089457        -0.917648
 C        -1.277304        -1.317539         0.384661
 C        -0.314098        -0.210714         0.388409
 O         0.860617        -0.318327         0.362253
 C        -1.056932         1.162563         0.275699
 O        -1.716002         1.445711        -0.965293
 H        -3.911823         1.429543        -2.501902
 H        -4.155533        -0.390991        -2.327301
 H        -4.563664         0.789680        -1.024856
 H        -2.466535        -1.389897        -3.073814
 H        -0.751062        -0.698118        -2.740185
 H        -3.082421        -1.663176        -0.744416
 H        -2.069486        -1.287579         1.148421
 H        -0.778018        -2.285799         0.390504
 H        -1.818773         1.225644         1.066243
 H        -0.365986         1.952862         0.445900
