19
Iteration:  1682charge 0 multiplicity 1
 C        -3.919363         0.781893        -1.503049
 C        -2.443610         0.286339        -1.533130
 C        -2.008575        -0.925733        -2.429984
 C        -2.256078        -1.149194        -0.953400
 C        -1.033295        -1.522103        -0.040704
 C        -0.283623        -0.225395         0.377318
 O         0.710725        -0.121232         1.090051
 C        -0.980236         1.174393        -0.011609
 O        -1.555672         1.324549        -1.291182
 H        -4.175351         1.541469        -2.314702
 H        -4.572534        -0.118106        -1.384309
 H        -3.957351         1.281000        -0.489702
 H        -2.737443        -1.257542        -3.122123
 H        -0.974295        -0.758261        -2.757311
 H        -3.152059        -1.771049        -0.700419
 H        -1.397096        -2.088076         0.859397
 H        -0.413515        -2.183656        -0.583412
 H        -1.662863         1.179577         0.879264
 H        -0.144255         1.920043         0.117958
