19
Iteration:  1420charge 0 multiplicity 1
 C        -3.670597         1.002137        -0.897823
 C        -2.508629         0.139088        -1.375810
 C        -2.519516        -0.997128        -2.398341
 C        -1.865191        -1.275315        -1.040039
 C        -0.391588        -1.296343        -0.577287
 C        -0.446327        -0.065463         0.354762
 O        -0.210050        -0.130724         1.544757
 C        -0.814635         1.233867        -0.284220
 O        -1.302781         0.966672        -1.602973
 H        -3.269498         1.978243        -1.260738
 H        -4.608431         0.728252        -1.408889
 H        -3.812087         1.013021         0.153233
 H        -3.454990        -1.494432        -2.414196
 H        -1.944243        -0.776265        -3.314072
 H        -2.433695        -1.926208        -0.415466
 H        -0.333283        -2.292170        -0.063785
 H         0.294446        -1.222322        -1.399844
 H        -1.586692         1.830967         0.264506
 H         0.123115         1.916898        -0.424666
