19
Iteration:  4878charge 0 multiplicity 1
 C        -4.023635         0.764840        -1.863243
 C        -2.602357         0.236026        -1.520263
 C        -1.679410        -0.543457        -2.322726
 C        -2.199318        -1.169781        -1.009460
 C        -1.315516        -1.394090         0.178246
 C        -0.273741        -0.264131         0.425270
 O         0.870420        -0.411598         0.865929
 C        -0.606922         1.092567        -0.152016
 O        -1.961927         1.298259        -0.807643
 H        -4.503639         0.335554        -2.761604
 H        -4.726126         0.580627        -1.062469
 H        -3.905779         1.982527        -1.831205
 H        -1.819325        -0.962601        -3.308338
 H        -0.518587        -0.404789        -2.260817
 H        -3.059160        -1.814996        -1.209921
 H        -2.011709        -1.329684         1.005915
 H        -0.903311        -2.429050         0.022632
 H        -0.648726         1.844641         0.691983
 H         0.155540         1.373598        -0.877996
