19
Iteration:  2974
 C        -3.965294         0.734702        -1.339786
 C        -2.511766         0.271427        -1.514510
 C        -2.274517        -0.941878        -2.377209
 C        -2.108617        -1.161753        -0.937948
 C        -0.636499        -1.333826        -0.420007
 C        -0.314267        -0.124451         0.426267
 O         0.244003        -0.225284         1.490832
 C        -0.723750         1.239993        -0.161362
 O        -1.460395         1.185318        -1.428953
 H        -4.317237         1.293486        -2.256830
 H        -4.671166        -0.080718        -1.321591
 H        -4.136614         1.259268        -0.369200
 H        -3.159380        -1.289607        -2.856214
 H        -1.263918        -0.925506        -2.857107
 H        -2.822816        -1.888477        -0.451503
 H        -0.576758        -2.143328         0.327342
 H         0.079457        -1.496570        -1.214100
 H        -1.220462         1.939723         0.580687
 H         0.150100         1.792839        -0.511058
