19
Iteration:  2341charge 0 multiplicity 1
 C        -3.867661         0.918998        -1.420736
 C        -2.528017         0.119539        -1.458468
 C        -2.190556        -1.105340        -2.420426
 C        -2.181996        -1.303647        -0.899357
 C        -0.758869        -1.337917        -0.343889
 C        -0.297862        -0.115113         0.341846
 O         0.423157        -0.054118         1.309016
 C        -0.860514         1.184645        -0.074190
 O        -1.524173         1.243421        -1.303465
 H        -3.753143         2.005603        -1.560153
 H        -4.570111         0.648609        -2.269844
 H        -4.305695         0.686584        -0.406943
 H        -3.008072        -1.414175        -3.046744
 H        -1.203890        -1.097475        -2.928846
 H        -2.972749        -1.850928        -0.452814
 H        -0.652791        -2.146146         0.440672
 H         0.138690        -1.491057        -1.079551
 H        -1.596172         1.450927         0.756557
 H        -0.049743         1.879385        -0.075662
