19
Iteration:  3196
 C        -3.745045         0.618190        -1.993679
 C        -2.526922         0.178493        -1.422819
 C        -1.631785        -0.727049        -2.198103
 C        -2.307777        -1.199182        -0.920893
 C        -1.283614        -1.333113         0.237416
 C        -0.323257        -0.147182         0.258350
 O         0.865939        -0.485729         0.383108
 C        -0.901595         1.321009         0.138946
 O        -1.993503         1.415953        -0.684170
 H        -3.645875         1.624549        -2.356546
 H        -3.999433        -0.151186        -2.828608
 H        -4.637370         0.684448        -1.352283
 H        -2.007294        -1.044056        -3.141619
 H        -0.546086        -0.556377        -2.189939
 H        -2.954257        -1.995912        -0.854797
 H        -1.751709        -1.301951         1.279779
 H        -0.550378        -2.130989         0.313906
 H        -0.960305         1.557783         1.210109
 H        -0.088233         1.926839        -0.298186
