19
Iteration:  4201
 C        -4.015059         0.694486        -1.631918
 C        -2.560747         0.255391        -1.507634
 C        -1.775322        -0.571592        -2.472263
 C        -2.139416        -1.173339        -1.144138
 C        -1.184958        -1.362535        -0.002972
 C        -0.244738        -0.280901         0.346738
 O         0.639141        -0.345354         1.189254
 C        -0.564216         1.100840        -0.321288
 O        -1.932056         1.293192        -0.732005
 H        -4.539794        -0.002859        -2.275875
 H        -4.480651         0.921971        -0.702498
 H        -3.924862         1.617904        -2.297863
 H        -2.220408        -0.800261        -3.418905
 H        -0.660349        -0.505526        -2.524493
 H        -2.920548        -2.033246        -1.241365
 H        -1.811422        -1.358562         0.952438
 H        -0.626241        -2.283669        -0.034661
 H        -0.314181         2.033962         0.327970
 H         0.175508         1.325533        -1.117442
