19
Iteration:  3997
 C        -3.851800         0.778681        -1.484925
 C        -2.503438         0.292473        -1.428867
 C        -1.882891        -0.753520        -2.522931
 C        -2.177669        -1.145657        -1.107667
 C        -1.124856        -1.398532        -0.101321
 C        -0.340365        -0.189743         0.352311
 O         0.692217        -0.332771         0.937663
 C        -1.089006         1.098340         0.211299
 O        -1.464472         1.285631        -1.133905
 H        -4.548686        -0.085585        -1.560192
 H        -4.181954         1.326502        -0.550896
 H        -4.106389         1.499530        -2.380952
 H        -2.662533        -1.126874        -3.230858
 H        -0.901864        -0.655316        -2.959547
 H        -3.161874        -1.710704        -1.017569
 H        -1.454639        -1.488130         0.950426
 H        -0.486350        -2.348417        -0.199260
 H        -1.984990         1.261353         0.796856
 H        -0.312234         1.928528         0.430580
