19
Iteration:  2938charge 0 multiplicity 1
 C        -3.664563         0.822662        -0.910285
 C        -2.473873         0.152832        -1.482265
 C        -2.393248        -0.944662        -2.478077
 C        -2.058703        -1.316966        -1.104597
 C        -0.562643        -1.283638        -0.543941
 C        -0.434223        -0.093999         0.449637
 O        -0.061156        -0.056274         1.628524
 C        -0.804750         1.298809        -0.269174
 O        -1.319683         1.021665        -1.586119
 H        -3.769044         1.854064        -1.180392
 H        -4.566486         0.235693        -1.171330
 H        -3.594071         0.778872         0.199642
 H        -3.328472        -1.267975        -3.038276
 H        -1.670361        -0.996340        -3.294103
 H        -2.705242        -1.904989        -0.511464
 H        -0.293342        -2.188288        -0.071743
 H         0.192841        -1.094890        -1.352355
 H        -1.454879         1.838470         0.412805
 H         0.160074         1.707431        -0.444649
