19
Iteration:  1202
 C        -3.691136         0.684311        -1.980851
 C        -2.316262         0.189611        -1.397304
 C        -1.546139        -0.877968        -2.084483
 C        -2.229202        -1.169445        -0.739842
 C        -1.324947        -1.278228         0.447003
 C        -0.446369        -0.137463         0.329306
 O         0.656428        -0.362054        -0.123114
 C        -1.182151         1.280591         0.406321
 O        -1.685822         1.336367        -0.921064
 H        -3.435193         1.420556        -2.791544
 H        -4.323429        -0.137600        -2.351940
 H        -4.217872         1.298217        -1.299367
 H        -1.916598        -1.418797        -2.955880
 H        -0.414363        -0.757807        -2.074209
 H        -2.988505        -1.921312        -0.830687
 H        -2.030328        -1.305034         1.371186
 H        -0.812332        -2.298098         0.345657
 H        -1.931122         1.123797         1.161918
 H        -0.436303         2.144797         0.505177
