19
Iteration:  2667
 C        -3.937260         0.702934        -1.737878
 C        -2.472899         0.227880        -1.497077
 C        -2.112106        -0.855838        -2.413627
 C        -2.300856        -1.185163        -0.867989
 C        -0.984099        -1.336766        -0.119773
 C        -0.235571        -0.100412         0.350773
 O         0.811801        -0.158916         0.949333
 C        -1.053216         1.151580         0.239233
 O        -1.470946         1.194362        -1.111313
 H        -4.060847         1.499721        -2.494390
 H        -4.472976        -0.125495        -2.315947
 H        -4.464016         0.959104        -0.807830
 H        -2.996663        -1.058626        -3.089918
 H        -0.996690        -0.886507        -2.798053
 H        -3.193675        -1.887781        -0.658685
 H        -1.242880        -1.568706         0.910748
 H        -0.363982        -2.119163        -0.701161
 H        -1.889710         1.375657         0.895520
 H        -0.414300         2.029153         0.368293
