19
Iteration:   948
 C        -3.716609         0.949821        -1.142136
 C        -2.418706         0.167732        -1.410033
 C        -2.524028        -1.188675        -2.217201
 C        -1.886893        -1.192446        -0.887779
 C        -0.346229        -1.098006        -0.805167
 C        -0.366759        -0.114507         0.361897
 O        -0.191863        -0.240835         1.557181
 C        -0.881400         1.224075        -0.180228
 O        -1.387615         1.048161        -1.551593
 H        -3.711785         1.589473        -2.025932
 H        -4.637783         0.401597        -0.957884
 H        -3.537645         1.724786        -0.332778
 H        -3.528861        -1.487802        -2.345716
 H        -1.842892        -1.324727        -3.049211
 H        -2.323538        -1.691100        -0.023522
 H         0.218222        -1.935596        -0.467239
 H         0.085793        -0.698317        -1.666034
 H        -1.625480         1.800958         0.432546
 H         0.032569         1.745807        -0.123491
