19
Iteration:  2584
 C        -3.924827         0.506990        -1.766090
 C        -2.390519         0.196527        -1.570999
 C        -1.766748        -0.740741        -2.397657
 C        -2.136634        -1.129063        -0.983913
 C        -1.386438        -1.284880         0.300676
 C        -0.331782        -0.155656         0.440559
 O         0.863998        -0.304396         0.405785
 C        -0.997471         1.271217         0.356630
 O        -1.662205         1.294318        -0.984937
 H        -4.189222         1.192592        -2.606445
 H        -4.530967        -0.386225        -1.785300
 H        -4.285031         0.996536        -0.850001
 H        -2.305749        -1.110621        -3.214531
 H        -0.709079        -0.741792        -2.641941
 H        -3.024155        -1.696843        -1.221057
 H        -2.064448        -1.165688         1.199774
 H        -0.988591        -2.283111         0.498518
 H        -1.638666         1.476847         1.246752
 H        -0.077932         1.941163         0.233896
