19
Iteration:   475
 C        -3.948797         0.516055        -1.908081
 C        -2.627009         0.124123        -1.420634
 C        -1.441395        -0.543101        -2.181052
 C        -1.988454        -1.190710        -0.891910
 C        -1.332497        -1.276404         0.548887
 C        -0.291365        -0.150631         0.313255
 O         0.944089        -0.406327         0.342905
 C        -0.929608         1.206390        -0.156015
 O        -2.156988         1.325819        -0.799470
 H        -3.846726         0.890503        -2.957146
 H        -4.658884        -0.276937        -2.020455
 H        -4.444256         1.143393        -1.238666
 H        -1.673007        -1.010193        -3.073475
 H        -0.561024         0.063479        -2.210639
 H        -2.454172        -2.149733        -0.978444
 H        -2.022234        -1.024562         1.405865
 H        -0.860264        -2.164526         0.834457
 H        -0.942937         1.818999         0.755763
 H        -0.239815         1.796258        -0.712646
