19
Iteration:   667
 C        -3.889847         0.771691        -1.386914
 C        -2.529596         0.095990        -1.435643
 C        -2.026538        -0.857330        -2.514996
 C        -2.123341        -1.307305        -1.017872
 C        -0.969442        -1.374499         0.038017
 C        -0.323535        -0.073986         0.381104
 O         0.743310         0.108499         0.951714
 C        -1.112036         1.126028         0.018556
 O        -1.527672         1.091634        -1.283692
 H        -3.787257         1.744902        -1.853506
 H        -4.734707         0.265503        -1.808085
 H        -4.167546         1.005455        -0.376888
 H        -2.702002        -1.351428        -3.161576
 H        -1.089305        -0.522265        -2.913519
 H        -2.923983        -2.075484        -0.931300
 H        -1.434408        -1.785745         0.902058
 H        -0.314117        -2.211818        -0.292056
 H        -1.952826         1.186179         0.706126
 H        -0.451826         2.012669         0.203467
