19
Iteration:  4884
 C        -4.009842         0.790279        -1.894163
 C        -2.580820         0.228717        -1.527506
 C        -1.674998        -0.595802        -2.301471
 C        -2.210511        -1.167445        -1.018795
 C        -1.286518        -1.405220         0.159943
 C        -0.273515        -0.233345         0.400215
 O         0.880600        -0.472763         0.857787
 C        -0.690532         1.131407        -0.122428
 O        -1.970364         1.348968        -0.786969
 H        -4.412320         0.361737        -2.821434
 H        -4.636729         0.500777        -1.016877
 H        -3.916616         1.793678        -2.004000
 H        -1.930715        -1.077775        -3.262205
 H        -0.648757        -0.306603        -2.290452
 H        -3.124399        -1.784176        -0.969533
 H        -1.769080        -1.289751         1.197023
 H        -0.758026        -2.329305        -0.010837
 H        -0.602656         1.810540         0.703629
 H         0.138679         1.345531        -0.839269
