19
Iteration:  3402charge 0 multiplicity 1
 C        -3.963516         0.725611        -1.321208
 C        -2.522057         0.289266        -1.472364
 C        -2.143482        -0.754674        -2.454239
 C        -2.130862        -1.162116        -0.957383
 C        -0.754441        -1.449965        -0.423274
 C        -0.338734        -0.193627         0.410325
 O         0.405963        -0.259761         1.381603
 C        -0.796300         1.185217        -0.037990
 O        -1.521748         1.242845        -1.362400
 H        -3.953533         1.781182        -1.224562
 H        -4.535600         0.567426        -2.274682
 H        -4.456413         0.293767        -0.497819
 H        -2.918207        -1.166918        -3.185285
 H        -1.212260        -0.621747        -3.056776
 H        -2.932996        -1.698437        -0.520003
 H        -0.821294        -2.276910         0.274763
 H         0.026588        -1.684889        -1.135074
 H        -1.374994         1.561892         0.812137
 H         0.009493         1.870151        -0.260168
