19
Iteration:  1123charge 0 multiplicity 1
 C        -3.796189         0.638016        -2.129931
 C        -2.472421         0.272852        -1.363887
 C        -1.780712        -0.850324        -2.023878
 C        -2.328279        -1.140694        -0.656038
 C        -1.159150        -1.347897         0.215659
 C        -0.275530        -0.160868         0.280122
 O         0.919835        -0.351834         0.296880
 C        -1.162965         1.206747         0.281593
 O        -1.745465         1.419414        -1.013722
 H        -3.648867         1.406650        -2.849312
 H        -4.187060        -0.198100        -2.671921
 H        -4.448973         0.974712        -1.369950
 H        -2.123969        -1.467076        -2.870851
 H        -0.727108        -0.771959        -2.065151
 H        -3.254620        -1.782894        -0.593140
 H        -1.346310        -1.553827         1.350731
 H        -0.616830        -2.244104        -0.089782
 H        -1.963285         1.070467         1.045904
 H        -0.575036         2.111132         0.484350
