19
Iteration:   994
 C        -3.844995         0.806275        -1.309374
 C        -2.494245         0.161994        -1.498302
 C        -2.378496        -0.949808        -2.453791
 C        -2.085749        -1.229073        -0.947324
 C        -0.678810        -1.346890        -0.377319
 C        -0.326831        -0.078034         0.428580
 O         0.322054        -0.147966         1.460201
 C        -0.864277         1.245778        -0.141646
 O        -1.409353         1.143035        -1.439576
 H        -3.937164         1.665253        -2.060626
 H        -4.630980        -0.004822        -1.411578
 H        -3.996779         1.306989        -0.311812
 H        -3.298517        -1.344344        -2.848907
 H        -1.511757        -1.057035        -3.092872
 H        -2.916367        -1.707135        -0.382837
 H        -0.618532        -2.205255         0.251539
 H         0.054033        -1.471147        -1.214803
 H        -1.492090         1.646200         0.671342
 H         0.012886         1.957732        -0.176571
