19
Iteration:  3883
 C        -3.879543         0.904608        -1.619289
 C        -2.491633         0.318090        -1.506763
 C        -1.968537        -0.755029        -2.432317
 C        -2.248393        -1.089000        -0.945996
 C        -0.955640        -1.517619        -0.246080
 C        -0.272171        -0.233920         0.332242
 O         0.698944        -0.312055         1.073672
 C        -1.102612         1.094902         0.186499
 O        -1.554061         1.292039        -1.114752
 H        -4.494870        -0.021233        -1.799296
 H        -4.214479         1.398375        -0.661300
 H        -4.008415         1.494453        -2.558569
 H        -2.587832        -1.228505        -3.270479
 H        -0.929082        -0.750805        -2.648497
 H        -3.057535        -1.769764        -0.632229
 H        -1.069194        -2.142232         0.650115
 H        -0.369211        -2.141310        -0.889571
 H        -1.845816         0.942910         0.933471
 H        -0.523416         1.911911         0.474687
