19
Iteration:  3383charge 0 multiplicity 1
 C        -4.002358         0.613337        -1.475638
 C        -2.524778         0.281193        -1.488349
 C        -2.284348        -0.817333        -2.566123
 C        -2.119497        -1.092287        -1.069474
 C        -0.866280        -1.391206        -0.265187
 C        -0.271984        -0.245912         0.452186
 O         0.525229        -0.257136         1.385717
 C        -0.702004         1.164662        -0.047707
 O        -1.537562         1.394166        -1.167393
 H        -4.164964         1.703142        -1.320262
 H        -4.445831         0.236503        -2.401127
 H        -4.423928         0.086477        -0.590498
 H        -3.069999        -1.185804        -3.238039
 H        -1.366067        -0.964125        -3.223989
 H        -2.962542        -1.673387        -0.708707
 H        -0.930918        -2.239964         0.390487
 H        -0.110310        -1.651150        -0.985073
 H        -1.176034         1.803153         0.722106
 H         0.291282         1.583468        -0.440301
