19
Iteration:  4767charge 0 multiplicity 1
 C        -3.913958         0.847906        -1.712046
 C        -2.498992         0.221751        -1.407293
 C        -1.889628        -0.626196        -2.433396
 C        -2.183692        -1.180778        -1.065353
 C        -1.018334        -1.585109        -0.078751
 C        -0.391821        -0.269942         0.452566
 O         0.645615        -0.303198         1.135466
 C        -0.674615         1.067925        -0.271527
 O        -1.894870         1.429390        -0.803528
 H        -4.697926         0.149896        -2.137830
 H        -4.220954         1.284376        -0.793698
 H        -3.742719         1.595477        -2.616559
 H        -2.574021        -0.925651        -3.289959
 H        -0.895284        -0.380420        -2.665546
 H        -2.926483        -1.940452        -1.135371
 H        -1.450778        -2.098303         0.788143
 H        -0.279843        -2.344115        -0.467918
 H        -0.397899         1.907447         0.370486
 H         0.201661         1.061766        -0.989153
