19
Iteration:  4466charge 0 multiplicity 1
 C        -3.778944         0.658350        -1.954842
 C        -2.493584         0.284203        -1.455957
 C        -1.459704        -0.620853        -2.234537
 C        -2.252325        -1.123642        -1.007470
 C        -1.436324        -1.397676         0.259819
 C        -0.380889        -0.252364         0.374130
 O         0.822171        -0.482031         0.479313
 C        -0.725658         1.165210        -0.054451
 O        -2.117776         1.417442        -0.584573
 H        -4.213898        -0.323992        -2.306612
 H        -4.344854         0.933493        -1.048010
 H        -3.874062         1.420826        -2.725497
 H        -1.739693        -0.985625        -3.244513
 H        -0.280728        -0.639381        -1.994798
 H        -3.092570        -1.772299        -1.093863
 H        -2.033615        -1.122999         1.145789
 H        -0.756145        -2.258190         0.178940
 H        -0.377633         1.918888         0.706302
 H        -0.055002         1.335502        -0.888134
