19
Iteration:   209charge 0 multiplicity 1
 C        -3.888889         0.690033        -1.173276
 C        -2.496835         0.106618        -1.437046
 C        -2.420032        -1.213110        -2.197897
 C        -2.000917        -1.173353        -0.738151
 C        -0.485677        -1.158958        -0.536838
 C        -0.258043        -0.004198         0.315709
 O         0.021145        -0.026962         1.489284
 C        -0.755355         1.338220        -0.353585
 O        -1.413962         1.036123        -1.598360
 H        -4.662974         0.238933        -1.785520
 H        -4.117350         0.657022        -0.100047
 H        -3.832628         1.811615        -1.406773
 H        -3.460538        -1.607749        -2.501078
 H        -1.689760        -1.471295        -2.972381
 H        -2.522633        -1.610328         0.062971
 H        -0.044362        -2.078504        -0.154345
 H        -0.067337        -0.960208        -1.508607
 H        -1.422111         1.770613         0.432797
 H        -0.046975         2.110429        -0.707510
