19
Iteration:  2506charge 0 multiplicity 1
 C        -3.730742         0.831428        -2.075291
 C        -2.508147         0.165098        -1.449322
 C        -1.941296        -0.935582        -2.242353
 C        -2.241258        -1.228337        -0.801732
 C        -1.146373        -1.397388         0.281135
 C        -0.281364        -0.181934         0.365204
 O         0.945668        -0.133742         0.347831
 C        -1.084711         1.165885         0.333993
 O        -1.786734         1.318218        -0.894872
 H        -3.471404         1.760051        -2.586786
 H        -4.034825         0.254797        -2.964955
 H        -4.523991         0.891811        -1.336268
 H        -2.700581        -1.283116        -3.009835
 H        -0.887120        -0.946639        -2.557904
 H        -3.161710        -1.806418        -0.579219
 H        -1.750471        -1.612628         1.218802
 H        -0.450583        -2.290780         0.063826
 H        -1.765169         1.094413         1.226314
 H        -0.393978         1.995260         0.489567
