19
Iteration:  4173charge 0 multiplicity 1
 C        -3.921249         0.652508        -1.548523
 C        -2.501378         0.264060        -1.485132
 C        -1.601574        -0.560045        -2.448156
 C        -2.169407        -1.161600        -1.191805
 C        -1.363839        -1.383290         0.031798
 C        -0.327447        -0.185720         0.247148
 O         0.504220        -0.281634         1.117879
 C        -0.479259         1.119230        -0.451288
 O        -1.918009         1.176183        -0.543792
 H        -4.559304        -0.205868        -1.862912
 H        -4.189685         1.063599        -0.489634
 H        -4.168988         1.403560        -2.277722
 H        -2.043989        -0.658828        -3.425469
 H        -0.514833        -0.406036        -2.545138
 H        -2.895743        -1.801242        -1.503868
 H        -1.903779        -1.486998         0.955271
 H        -0.623207        -2.235823        -0.102207
 H        -0.022170         1.989844        -0.177040
 H         0.083877         1.112324        -1.418220
