19
Iteration:  4124
 C        -4.052284         0.697638        -1.788813
 C        -2.604639         0.283322        -1.460751
 C        -1.871268        -0.504194        -2.552198
 C        -2.163061        -1.117289        -1.060168
 C        -1.111394        -1.427293        -0.027686
 C        -0.206673        -0.249364         0.467205
 O         0.736933        -0.381563         1.282048
 C        -0.566435         1.043424        -0.347654
 O        -1.916296         1.323706        -0.749267
 H        -4.512955        -0.121418        -2.367273
 H        -4.622200         0.793998        -0.871311
 H        -4.203030         1.619994        -2.393525
 H        -2.506239        -1.060996        -3.303965
 H        -0.873817        -0.337869        -2.896707
 H        -3.096682        -1.839979        -1.107170
 H        -1.665011        -1.696843         0.937166
 H        -0.477342        -2.283022        -0.197455
 H        -0.233417         1.978079         0.287072
 H         0.153211         1.192318        -1.182447
