19
Iteration:   285
 C        -3.954536         0.811264        -1.255172
 C        -2.586734         0.076076        -1.439300
 C        -2.163324        -0.972811        -2.415696
 C        -2.044138        -1.345088        -0.949021
 C        -0.794123        -1.457295        -0.086774
 C        -0.306912         0.001523         0.378885
 O         0.549557         0.155483         1.238697
 C        -0.969916         1.262860        -0.239929
 O        -1.512080         1.051449        -1.473994
 H        -4.458903         0.575249        -0.325317
 H        -3.703555         1.887383        -1.347483
 H        -4.672747         0.522699        -2.116553
 H        -2.855138        -1.524837        -3.115747
 H        -1.197065        -0.904536        -2.999959
 H        -2.880996        -1.925690        -0.604946
 H        -0.893664        -2.060888         0.850044
 H        -0.026221        -1.996340        -0.642233
 H        -1.729308         1.570078         0.585294
 H        -0.155208         2.065297        -0.279406
