19
Iteration:  1466charge 0 multiplicity 1
 C        -3.763053         0.642723        -0.796335
 C        -2.376490         0.227330        -1.374417
 C        -2.395807        -0.982953        -2.301449
 C        -1.977011        -1.079418        -0.833806
 C        -0.495652        -1.272478        -0.662738
 C        -0.419334        -0.080328         0.288573
 O        -0.531554        -0.205305         1.478249
 C        -0.427219         1.260470        -0.467495
 O        -1.282756         1.160734        -1.597797
 H        -4.123369         1.625862        -0.860105
 H        -4.527496         0.047678        -1.289948
 H        -3.911042         0.304860         0.240357
 H        -3.374442        -1.356855        -2.573918
 H        -1.511227        -1.138214        -2.840072
 H        -2.791215        -1.461264        -0.161656
 H        -0.239985        -2.229436        -0.099718
 H        -0.022662        -1.179227        -1.704575
 H        -0.610128         2.221219         0.116791
 H         0.559084         1.328607        -0.984663
