19
Iteration:  3902charge 0 multiplicity 1
 C        -3.908656         0.960617        -1.724327
 C        -2.492129         0.295515        -1.524907
 C        -2.052237        -0.874390        -2.464332
 C        -2.241221        -1.156526        -0.997606
 C        -0.941793        -1.363000        -0.240115
 C        -0.338786        -0.242836         0.468833
 O         0.782110        -0.210176         0.969473
 C        -1.112209         0.974887         0.353688
 O        -1.490243         1.223708        -1.062054
 H        -4.744726         0.417807        -2.112708
 H        -4.113301         1.360870        -0.695153
 H        -3.745339         1.803790        -2.300222
 H        -2.822247        -1.306381        -3.152779
 H        -1.050267        -0.767890        -2.905549
 H        -3.179340        -1.565568        -0.761603
 H        -1.112539        -2.207706         0.446486
 H        -0.162900        -1.869010        -0.822669
 H        -2.042077         0.944480         0.997161
 H        -0.452348         1.873328         0.496232
