19
Iteration:  1841charge 0 multiplicity 1
 C        -3.750345         0.766641        -2.121814
 C        -2.473884         0.215530        -1.487962
 C        -1.920352        -1.029622        -2.309655
 C        -2.371389        -1.166411        -0.850730
 C        -1.227635        -1.258969         0.287115
 C        -0.155277        -0.109804         0.317491
 O         1.042550        -0.329002         0.417741
 C        -1.002699         1.265724         0.355217
 O        -1.862018         1.317808        -0.811730
 H        -3.622635         1.654368        -2.742113
 H        -4.401740         0.038852        -2.605420
 H        -4.516357         1.030396        -1.318403
 H        -2.542709        -1.500036        -3.043419
 H        -0.891527        -1.348548        -2.515191
 H        -3.313574        -1.759937        -0.722007
 H        -1.742065        -1.089673         1.178527
 H        -0.860892        -2.325331         0.316085
 H        -1.628720         1.198751         1.288195
 H        -0.347438         2.118967         0.342911
