19
Iteration:  2828charge 0 multiplicity 1
 C        -3.821106         0.681215        -0.854645
 C        -2.459200         0.221288        -1.256924
 C        -2.422450        -0.875272        -2.315055
 C        -1.780472        -1.253525        -0.993247
 C        -0.384105        -1.349298        -0.579605
 C        -0.383996        -0.130133         0.239869
 O        -0.599920        -0.101908         1.483431
 C        -0.358679         1.160804        -0.531992
 O        -1.424431         1.233919        -1.477673
 H        -4.435801         0.980071        -1.701860
 H        -4.324363        -0.231640        -0.412494
 H        -3.857121         1.598761        -0.249991
 H        -3.450179        -1.293063        -2.491821
 H        -1.672903        -0.553693        -3.146156
 H        -2.476365        -1.858430        -0.345397
 H        -0.275164        -2.181759         0.195741
 H         0.305540        -1.492297        -1.387168
 H        -0.432557         1.993700         0.209071
 H         0.486306         1.499998        -1.101359
