19
Iteration:  1945
 C        -3.883367         0.779214        -1.674445
 C        -2.477670         0.144576        -1.494744
 C        -1.873747        -0.929187        -2.455935
 C        -2.357035        -1.308982        -1.058372
 C        -1.257754        -1.249803         0.115259
 C        -0.271956        -0.078049         0.493996
 O         0.913766        -0.176325         0.635608
 C        -0.966585         1.228157         0.311826
 O        -1.586884         1.175129        -1.070243
 H        -3.800912         1.709603        -2.359174
 H        -4.621795         0.158782        -2.294638
 H        -4.349661         1.185777        -0.749675
 H        -2.490100        -1.287589        -3.288336
 H        -0.750513        -0.824477        -2.613223
 H        -3.221150        -1.921130        -0.962561
 H        -1.958773        -1.305399         0.965908
 H        -0.720628        -2.184737         0.131485
 H        -1.758747         1.360249         1.046211
 H        -0.295715         2.125820         0.377283
