19
Iteration:    90
 C        -3.819420         0.734245        -0.832927
 C        -2.524184         0.015730        -1.318571
 C        -2.313713        -1.070789        -2.355693
 C        -1.904460        -1.328957        -0.863232
 C        -0.396992        -1.399377        -0.401772
 C        -0.338461        -0.014114         0.256047
 O        -0.327269         0.233435         1.467087
 C        -0.501984         1.223656        -0.673776
 O        -1.608304         1.146429        -1.521450
 H        -4.651658         0.084980        -0.859474
 H        -3.706252         1.117568         0.149967
 H        -3.967621         1.510465        -1.656079
 H        -3.056770        -1.722333        -2.895922
 H        -1.385967        -0.812856        -2.941969
 H        -2.557822        -1.889031        -0.279741
 H        -0.136111        -2.234317         0.246882
 H         0.288062        -1.385997        -1.269614
 H        -0.545612         2.054518         0.021420
 H         0.432543         1.315896        -1.204149
