19
Iteration:  2368charge 0 multiplicity 1
 C        -3.981772         0.700675        -1.529138
 C        -2.541619         0.202382        -1.460546
 C        -2.135729        -0.808190        -2.408229
 C        -2.174780        -1.108020        -0.865494
 C        -0.835602        -1.477422        -0.146592
 C        -0.326995        -0.154784         0.439482
 O         0.667578        -0.136230         1.170509
 C        -1.014137         1.232555        -0.027379
 O        -1.434379         1.148821        -1.362908
 H        -3.939808         1.761721        -1.898149
 H        -4.618326         0.276746        -2.317642
 H        -4.396154         0.702416        -0.529848
 H        -2.980389        -1.154223        -3.053765
 H        -1.193102        -0.652242        -2.908814
 H        -3.138835        -1.644393        -0.607330
 H        -0.888974        -2.230740         0.623070
 H         0.003267        -1.803673        -0.699670
 H        -1.954618         1.394879         0.554027
 H        -0.297256         2.132446         0.052340
