19
Iteration:  2924
 C        -3.627757         0.855150        -0.740302
 C        -2.414486         0.129154        -1.501510
 C        -2.491502        -0.941440        -2.556132
 C        -1.871817        -1.271054        -1.095074
 C        -0.508565        -1.277423        -0.512159
 C        -0.503598        -0.004803         0.397426
 O        -0.211796        -0.088988         1.594686
 C        -0.842551         1.204300        -0.312785
 O        -1.262118         0.968449        -1.639874
 H        -3.680443         1.957493        -0.909193
 H        -4.605181         0.424653        -1.083804
 H        -3.521909         0.771777         0.360186
 H        -3.427722        -1.450861        -2.549503
 H        -1.768442        -0.631649        -3.305827
 H        -2.630363        -1.867073        -0.517298
 H        -0.296926        -2.206278         0.153053
 H         0.275295        -1.212890        -1.296970
 H        -1.503895         1.909183         0.163720
 H         0.038359         1.930493        -0.292289
