19
Iteration:  2489
 C        -3.761558         0.658071        -1.930986
 C        -2.417442         0.247303        -1.421994
 C        -1.938656        -0.960511        -2.398347
 C        -2.283297        -1.189557        -0.867381
 C        -1.153438        -1.317655         0.224387
 C        -0.231412        -0.108834         0.293270
 O         0.933944        -0.232685         0.426380
 C        -1.192619         1.183621         0.417370
 O        -1.689285         1.342998        -0.933603
 H        -3.424133         1.528160        -2.610399
 H        -4.350630        -0.067144        -2.489686
 H        -4.414082         1.163291        -1.176659
 H        -2.686063        -1.321845        -3.015646
 H        -0.969113        -1.119914        -2.873388
 H        -3.183699        -1.755461        -0.632337
 H        -1.655660        -1.235871         1.215005
 H        -0.714427        -2.248881         0.349330
 H        -2.018501         1.067352         1.159295
 H        -0.553595         2.112881         0.541796
