19
Iteration:   987
 C        -3.840932         0.855837        -1.279799
 C        -2.489881         0.156484        -1.457897
 C        -2.392389        -0.996298        -2.411175
 C        -2.067533        -1.219561        -0.944206
 C        -0.644017        -1.318420        -0.455678
 C        -0.277983        -0.027169         0.437856
 O         0.271397        -0.213218         1.506352
 C        -0.884592         1.256408        -0.126816
 O        -1.407555         1.112943        -1.484438
 H        -3.885988         1.569527        -2.133129
 H        -4.759699         0.273427        -1.486112
 H        -4.027256         1.397561        -0.361282
 H        -3.309212        -1.437135        -2.949858
 H        -1.501617        -1.083188        -3.031575
 H        -2.754824        -1.764751        -0.310160
 H        -0.463811        -2.272189         0.170255
 H         0.059406        -1.311779        -1.343876
 H        -1.652907         1.695456         0.531727
 H        -0.170336         2.076621        -0.415973
