19
Iteration:  1783
 C        -3.948076         0.709468        -1.911532
 C        -2.529223         0.203570        -1.400530
 C        -1.674205        -0.877229        -2.099441
 C        -2.357759        -1.181810        -0.792705
 C        -1.225656        -1.332411         0.194864
 C        -0.303477        -0.165586         0.264472
 O         0.857586        -0.367538         0.571885
 C        -0.920304         1.215744         0.067652
 O        -1.735921         1.409971        -1.098724
 H        -3.898645         1.745281        -2.274240
 H        -4.240296         0.123212        -2.765491
 H        -4.563099         0.787938        -0.976274
 H        -2.047808        -1.238764        -3.108918
 H        -0.598987        -0.611303        -2.003588
 H        -3.257708        -1.728127        -0.676892
 H        -1.471845        -1.475035         1.250090
 H        -0.646524        -2.212074        -0.051921
 H        -1.513128         1.277874         1.051288
 H        -0.014563         1.824350         0.257619
