19
Iteration:   777
 C        -3.956405         0.644985        -1.283747
 C        -2.480381         0.066111        -1.444782
 C        -2.371578        -1.045572        -2.453847
 C        -1.998547        -1.231913        -0.979193
 C        -0.508998        -1.303032        -0.420703
 C        -0.300064        -0.055783         0.423115
 O         0.186656        -0.099598         1.520725
 C        -0.565332         1.330747        -0.279379
 O        -1.692262         1.283186        -1.299431
 H        -4.123780         1.355165        -2.102937
 H        -4.662164        -0.156878        -1.471014
 H        -4.188212         1.043336        -0.359414
 H        -3.335772        -1.345785        -2.803908
 H        -1.669481        -0.846134        -3.199707
 H        -2.646758        -1.888700        -0.400858
 H        -0.507129        -2.126136         0.274281
 H         0.056227        -1.462958        -1.432600
 H        -0.785807         2.170977         0.341524
 H         0.303668         1.490337        -0.947181
