19
Iteration:  3807charge 0 multiplicity 1
 C        -3.924600         0.716788        -1.281853
 C        -2.530448         0.261245        -1.482115
 C        -1.962357        -0.551688        -2.600267
 C        -2.086911        -1.221197        -1.219094
 C        -1.081675        -1.476938        -0.127753
 C        -0.286703        -0.194847         0.374244
 O         0.534468        -0.351666         1.335261
 C        -0.802902         1.196630        -0.113952
 O        -1.599061         1.272400        -1.227991
 H        -4.608954         0.020679        -1.794133
 H        -4.066970         0.790017        -0.189720
 H        -3.997954         1.730599        -1.777347
 H        -2.580481        -1.102149        -3.322220
 H        -0.999004        -0.162443        -3.026121
 H        -3.007881        -1.769586        -1.202438
 H        -1.492672        -1.914251         0.768740
 H        -0.376326        -2.257154        -0.239015
 H        -1.545219         1.394225         0.747675
 H         0.005909         1.809479        -0.111260
