19
Iteration:  3417charge 0 multiplicity 1
 C        -3.912086         0.878913        -1.210118
 C        -2.504040         0.197409        -1.402394
 C        -2.150458        -0.816940        -2.477509
 C        -2.125763        -1.216419        -1.067359
 C        -0.719644        -1.341306        -0.393213
 C        -0.278736        -0.149688         0.339208
 O         0.303597        -0.276333         1.392216
 C        -0.940480         1.212112        -0.139082
 O        -1.422768         1.135187        -1.361831
 H        -3.914932         2.011523        -1.036427
 H        -4.589743         0.668181        -2.023914
 H        -4.470733         0.386089        -0.335401
 H        -2.921935        -1.194521        -3.115416
 H        -1.071845        -0.615713        -2.636411
 H        -2.915239        -1.935309        -0.713157
 H        -0.546315        -2.234073         0.213202
 H        -0.055183        -1.414821        -1.246382
 H        -1.722604         1.477754         0.643955
 H        -0.123620         1.966352         0.129084
