19
Iteration:  4147charge 0 multiplicity 1
 C        -3.979948         0.631195        -1.699266
 C        -2.607878         0.241516        -1.377488
 C        -1.773486        -0.434482        -2.443882
 C        -2.106601        -1.175416        -1.167316
 C        -1.218878        -1.380257         0.035353
 C        -0.213431        -0.270123         0.300560
 O         0.566290        -0.319582         1.224852
 C        -0.481643         1.028043        -0.484629
 O        -1.912819         1.279819        -0.641027
 H        -4.573963        -0.170394        -2.118486
 H        -4.489872         0.975669        -0.844737
 H        -4.125362         1.455186        -2.460877
 H        -2.296683        -0.615535        -3.402225
 H        -0.758385        -0.106436        -2.609023
 H        -2.993339        -1.916296        -1.414179
 H        -1.897796        -1.367015         0.932265
 H        -0.706638        -2.329359         0.113170
 H        -0.049587         1.905610         0.110016
 H         0.197206         1.147650        -1.418142
