19
Iteration:   104
 C        -3.727015         0.581820        -0.731621
 C        -2.492790         0.080365        -1.349674
 C        -2.340835        -1.059095        -2.371250
 C        -1.897298        -1.243242        -0.949508
 C        -0.462459        -1.271068        -0.372858
 C        -0.431153         0.055412         0.311912
 O        -0.309581         0.179578         1.535767
 C        -0.477743         1.185446        -0.673163
 O        -1.564399         1.082906        -1.675360
 H        -4.670354         0.074176        -0.987046
 H        -3.656798         0.567480         0.392445
 H        -3.844792         1.642427        -1.005820
 H        -3.249858        -1.610000        -2.798503
 H        -1.558549        -0.795619        -3.084008
 H        -2.646322        -1.836260        -0.270354
 H        -0.489987        -2.042842         0.452376
 H         0.355606        -1.485903        -1.093319
 H        -0.597706         2.226804        -0.233644
 H         0.452279         1.145102        -1.348550
