19
Iteration:  2052
 C        -3.908528         0.823231        -1.386706
 C        -2.533276         0.174342        -1.409537
 C        -2.203501        -0.809479        -2.462129
 C        -2.170860        -1.252314        -0.968629
 C        -0.817679        -1.473994        -0.194757
 C        -0.298655        -0.122558         0.370540
 O         0.494874        -0.109873         1.324027
 C        -0.924991         1.282597        -0.086152
 O        -1.403262         1.090428        -1.408774
 H        -4.055196         1.292548        -2.382769
 H        -4.694286         0.078891        -1.080378
 H        -3.911634         1.659905        -0.681800
 H        -3.046043        -1.196608        -3.105600
 H        -1.244162        -0.504457        -2.953102
 H        -2.986343        -1.876421        -0.678351
 H        -1.012101        -2.269140         0.511845
 H        -0.164611        -1.973897        -0.948216
 H        -1.722381         1.533115         0.672493
 H        -0.144827         2.134871        -0.186732
