19
Iteration:  1007
 C        -3.843665         0.697948        -1.307231
 C        -2.442631         0.232391        -1.510950
 C        -2.273382        -0.916387        -2.498297
 C        -2.187383        -1.158464        -1.008514
 C        -0.827998        -1.404793        -0.258106
 C        -0.371359        -0.167072         0.434130
 O         0.408424        -0.008195         1.342216
 C        -0.784235         1.158513        -0.084098
 O        -1.434811         1.178455        -1.381220
 H        -4.276042         1.493138        -2.037219
 H        -4.602926        -0.153261        -1.439065
 H        -3.904597         0.999715        -0.234692
 H        -3.276346        -1.228906        -2.947991
 H        -1.499806        -0.859857        -3.242495
 H        -2.983077        -1.767278        -0.558253
 H        -0.842994        -2.188875         0.554857
 H         0.076309        -1.694241        -0.909605
 H        -1.505531         1.632723         0.561954
 H         0.195045         1.775563        -0.165887
