19
Iteration:  2717charge 0 multiplicity 1
 C        -3.815152         0.978428        -1.428032
 C        -2.520686         0.175210        -1.555756
 C        -2.302986        -1.047152        -2.434377
 C        -2.140989        -1.228113        -0.945441
 C        -0.726187        -1.355367        -0.338337
 C        -0.310509        -0.124215         0.429951
 O         0.579281        -0.019777         1.250339
 C        -1.074665         1.089784         0.082593
 O        -1.478737         1.095805        -1.342200
 H        -3.650922         1.968455        -1.868239
 H        -4.689226         0.656825        -1.987731
 H        -4.017549         1.015747        -0.345824
 H        -3.040698        -1.498821        -3.055860
 H        -1.335378        -1.094510        -2.825614
 H        -2.938255        -1.666264        -0.383909
 H        -0.576051        -2.140501         0.488063
 H        -0.047876        -1.481806        -1.161232
 H        -1.968913         1.188244         0.844097
 H        -0.457126         2.003769         0.196532
