19
Iteration:  3238charge 0 multiplicity 1
 C        -3.933241         0.663030        -1.927333
 C        -2.524425         0.255957        -1.482734
 C        -1.532315        -0.503759        -2.273729
 C        -2.214258        -1.199460        -1.020726
 C        -1.422844        -1.253504         0.309613
 C        -0.230202        -0.256277         0.276380
 O         0.914004        -0.350362         0.672859
 C        -0.687941         1.041455        -0.254219
 O        -2.131511         1.228968        -0.501359
 H        -3.834490         1.135453        -2.890102
 H        -4.587983        -0.259409        -2.001784
 H        -4.399482         1.291987        -1.199922
 H        -1.789665        -0.851244        -3.241359
 H        -0.531142        -0.073726        -2.350102
 H        -2.855169        -2.071079        -1.303408
 H        -1.991266        -0.921211         1.208140
 H        -1.133932        -2.242923         0.408481
 H        -0.549084         1.771185         0.505430
 H        -0.123582         1.221166        -1.230726
