19
Iteration:  4131charge 0 multiplicity 1
 C        -4.087708         0.678611        -1.772849
 C        -2.568122         0.279184        -1.456084
 C        -1.861046        -0.461186        -2.539629
 C        -2.182300        -1.133017        -1.093008
 C        -1.153289        -1.456368         0.004727
 C        -0.155351        -0.275151         0.428568
 O         0.690799        -0.366934         1.285325
 C        -0.554024         1.076199        -0.360223
 O        -1.910526         1.314575        -0.733256
 H        -4.408297        -0.225381        -2.346380
 H        -4.642447         0.905092        -0.757507
 H        -3.938712         1.532345        -2.391745
 H        -2.421601        -0.985766        -3.305946
 H        -0.839135        -0.170619        -2.879030
 H        -2.838235        -1.926857        -1.039691
 H        -1.655100        -1.431681         0.996207
 H        -0.588927        -2.428772        -0.207681
 H        -0.190149         1.991024         0.142815
 H        -0.039964         1.111765        -1.393175
