19
Iteration:   490
 C        -4.018961         0.355603        -1.990103
 C        -2.566778         0.134068        -1.434944
 C        -1.441272        -0.491382        -2.165166
 C        -1.990663        -1.192162        -0.886593
 C        -1.361859        -1.081564         0.469832
 C        -0.258214        -0.168694         0.255486
 O         0.911640        -0.534423         0.373598
 C        -0.781386         1.318203        -0.143532
 O        -2.235028         1.311076        -0.623909
 H        -4.046781         0.728103        -2.991250
 H        -4.679443        -0.532527        -1.880067
 H        -4.380287         1.261158        -1.412265
 H        -1.598539        -1.092459        -3.143131
 H        -0.421168        -0.031115        -2.253312
 H        -2.548233        -2.070205        -1.214936
 H        -2.064640        -0.658020         1.130097
 H        -0.913168        -2.122158         0.831258
 H        -0.891176         1.874922         0.810589
 H        -0.074207         1.751929        -0.969405
