19
Iteration:  3392
 C        -3.985787         0.633318        -1.406307
 C        -2.501986         0.227954        -1.505872
 C        -2.226191        -0.774642        -2.545278
 C        -2.162589        -1.080726        -0.999533
 C        -0.776581        -1.444916        -0.349105
 C        -0.312661        -0.220002         0.448043
 O         0.473673        -0.250991         1.382253
 C        -0.758279         1.176348        -0.041499
 O        -1.523059         1.355895        -1.272256
 H        -3.981562         1.695257        -1.273992
 H        -4.589984         0.413149        -2.327433
 H        -4.558182         0.243993        -0.604432
 H        -3.159890        -1.282205        -2.883167
 H        -1.224109        -0.568646        -3.007460
 H        -2.997470        -1.632097        -0.665712
 H        -0.876531        -2.262904         0.332332
 H        -0.092213        -1.756050        -1.087948
 H        -1.136018         1.749351         0.804980
 H         0.282709         1.550235        -0.086868
