19
Iteration:  3231charge 0 multiplicity 1
 C        -3.929771         0.693029        -1.912890
 C        -2.519945         0.245705        -1.516291
 C        -1.510309        -0.547193        -2.299259
 C        -2.228942        -1.185812        -0.973816
 C        -1.384410        -1.308406         0.338378
 C        -0.285557        -0.280349         0.308852
 O         0.917050        -0.329536         0.600115
 C        -0.755359         1.087956        -0.216093
 O        -2.086453         1.234847        -0.514039
 H        -3.808783         1.190147        -2.902852
 H        -4.536460        -0.207271        -2.230593
 H        -4.457091         1.315455        -1.165596
 H        -1.791152        -0.951351        -3.311896
 H        -0.504549        -0.157699        -2.210593
 H        -2.884326        -1.913401        -1.304024
 H        -2.151180        -1.090685         1.122271
 H        -0.985429        -2.365192         0.531268
 H        -0.520918         1.856251         0.548742
 H        -0.096473         1.406650        -1.027113
