19
Iteration:  3614charge 0 multiplicity 1
 C        -3.940150         0.701837        -0.906674
 C        -2.469993         0.205434        -1.427165
 C        -2.127313        -0.698884        -2.656164
 C        -1.979621        -1.222284        -1.225931
 C        -0.625420        -1.515838        -0.484986
 C        -0.436671        -0.190478         0.366357
 O        -0.090048        -0.170442         1.556874
 C        -0.536223         1.142599        -0.280554
 O        -1.524135         1.325430        -1.266979
 H        -4.918985         0.292882        -1.256762
 H        -3.985514         0.803335         0.138184
 H        -3.799171         1.802196        -1.221014
 H        -2.886760        -1.242202        -3.151408
 H        -1.295313        -0.407627        -3.273413
 H        -2.766493        -1.917194        -0.908545
 H        -0.725508        -2.460993         0.068410
 H         0.151697        -1.763051        -1.231500
 H        -0.857422         1.899900         0.507735
 H         0.462293         1.479268        -0.758265
