19
Iteration:    75charge 0 multiplicity 1
 C        -3.897065         0.724112        -1.052865
 C        -2.512975         0.089475        -1.291212
 C        -2.238527        -1.079121        -2.199368
 C        -1.925114        -1.380027        -0.844025
 C        -0.447862        -1.344653        -0.486709
 C        -0.223668        -0.017500         0.232681
 O        -0.300368         0.190915         1.423000
 C        -0.456148         1.228247        -0.593782
 O        -1.648169         1.139867        -1.420850
 H        -4.654690         0.018884        -0.537211
 H        -3.644380         1.651199        -0.440614
 H        -4.359043         1.260282        -1.858226
 H        -3.155444        -1.499409        -2.490584
 H        -1.625846        -1.026050        -3.062192
 H        -2.538068        -2.167616        -0.300115
 H        -0.144842        -2.188915         0.143799
 H         0.104806        -1.430207        -1.423863
 H        -0.573996         1.982685         0.202893
 H         0.344027         1.500498        -1.279155
