19
Iteration:  4166
 C        -3.951109         0.628207        -1.551740
 C        -2.480473         0.294471        -1.462096
 C        -1.610089        -0.479852        -2.435917
 C        -2.163939        -1.200387        -1.193518
 C        -1.312398        -1.322748         0.044590
 C        -0.376996        -0.206398         0.267188
 O         0.481117        -0.277737         1.092147
 C        -0.475684         1.103517        -0.508163
 O        -1.856319         1.162212        -0.537329
 H        -4.613988        -0.202995        -1.886172
 H        -4.456081         1.104951        -0.663119
 H        -4.055720         1.402450        -2.336187
 H        -2.090740        -0.813889        -3.410786
 H        -0.557822        -0.349924        -2.538875
 H        -2.861403        -2.076303        -1.348951
 H        -1.959002        -1.614972         0.922729
 H        -0.747547        -2.266723        -0.069109
 H        -0.045664         1.972473         0.173516
 H         0.015513         0.925404        -1.459234
