19
Iteration:  4329charge 0 multiplicity 1
 C        -4.063092         0.634458        -1.942759
 C        -2.577390         0.326758        -1.544992
 C        -1.664157        -0.533975        -2.362869
 C        -2.215811        -1.001334        -0.973537
 C        -1.267501        -1.316736         0.261865
 C        -0.217781        -0.327263         0.325371
 O         0.875170        -0.485380         0.812571
 C        -0.716124         1.036592        -0.004070
 O        -1.924222         1.340636        -0.818266
 H        -4.445279        -0.394515        -2.117824
 H        -4.608049         1.101587        -1.004549
 H        -3.898683         1.386067        -2.785106
 H        -2.102792        -1.020802        -3.172740
 H        -0.587839        -0.234149        -2.397808
 H        -2.868693        -1.904510        -1.188717
 H        -1.939062        -1.211826         1.174562
 H        -0.848882        -2.400663         0.230343
 H        -1.063592         1.463252         0.959644
 H        -0.002142         1.739665        -0.550487
