19
Iteration:  4732charge 0 multiplicity 1
 C        -3.944659         0.704489        -1.757730
 C        -2.571730         0.293419        -1.505578
 C        -1.914463        -0.722693        -2.488741
 C        -2.380354        -1.153971        -0.990748
 C        -1.092882        -1.375841        -0.216466
 C        -0.157348        -0.214141         0.353279
 O         0.607738        -0.427739         1.299416
 C        -0.507846         1.244922        -0.231068
 O        -1.812854         1.305176        -0.753706
 H        -4.624359        -0.009554        -2.258213
 H        -4.468143         0.872835        -0.727649
 H        -3.959164         1.748922        -2.111196
 H        -2.460280        -1.055014        -3.311189
 H        -0.869992        -0.575452        -2.699830
 H        -3.209471        -1.906156        -1.000318
 H        -1.483581        -1.850086         0.628420
 H        -0.365932        -1.992437        -0.716801
 H        -0.569554         1.864396         0.615122
 H         0.304664         1.578823        -0.920964
