19
Iteration:  1621
 C        -3.846052         1.080427        -1.464928
 C        -2.650173         0.084138        -1.522416
 C        -2.351037        -1.136348        -2.394052
 C        -2.137901        -1.178494        -0.885028
 C        -0.717544        -1.157564        -0.454364
 C        -0.346475        -0.123886         0.561614
 O         0.571969        -0.161391         1.375047
 C        -0.991231         1.143256         0.020700
 O        -1.399327         0.963465        -1.406078
 H        -3.587310         1.919876        -2.034638
 H        -4.757571         0.690492        -1.848527
 H        -3.957009         1.334803        -0.408856
 H        -3.144180        -1.578164        -3.028073
 H        -1.413811        -1.018241        -2.993975
 H        -2.756248        -1.778885        -0.265953
 H        -0.135266        -2.033775        -0.284754
 H        -0.154769        -0.519475        -1.228364
 H        -1.900733         1.632727         0.471741
 H        -0.281182         1.993609        -0.050726
