19
Iteration:  4533charge 0 multiplicity 1
 C        -3.871342         0.693603        -1.899220
 C        -2.474401         0.309758        -1.548554
 C        -1.813805        -0.686304        -2.516353
 C        -2.244269        -1.109276        -1.003857
 C        -1.294639        -1.284880         0.146042
 C        -0.249589        -0.222361         0.361168
 O         0.850746        -0.463740         0.838599
 C        -0.674513         1.171555         0.066162
 O        -1.933137         1.299688        -0.695874
 H        -4.316503        -0.182146        -2.397502
 H        -4.527324         0.840638        -0.941992
 H        -4.229579         1.429937        -2.524393
 H        -2.399296        -1.335470        -3.259607
 H        -0.786441        -0.580227        -2.944239
 H        -3.137205        -1.797005        -1.001226
 H        -2.048073        -1.355703         0.967623
 H        -0.749964        -2.327675         0.036730
 H        -0.888416         1.663991         1.066532
 H         0.063736         1.835627        -0.379986
