19
Iteration:  2487
 C        -3.774472         0.651199        -1.903414
 C        -2.423588         0.232085        -1.428985
 C        -1.919562        -0.956733        -2.398239
 C        -2.282492        -1.179025        -0.873454
 C        -1.164307        -1.289488         0.211320
 C        -0.252741        -0.125526         0.287958
 O         0.948731        -0.234482         0.436846
 C        -1.194052         1.192486         0.420494
 O        -1.674617         1.342678        -0.943685
 H        -3.446085         1.460090        -2.677978
 H        -4.364704        -0.080902        -2.473320
 H        -4.388276         1.173202        -1.127967
 H        -2.708824        -1.318289        -3.019748
 H        -0.944302        -1.139062        -2.863066
 H        -3.212360        -1.740212        -0.617330
 H        -1.730708        -1.253008         1.215403
 H        -0.703938        -2.244037         0.295227
 H        -1.977451         1.015514         1.140410
 H        -0.570090         2.133212         0.597188
