19
Iteration:  4385
 C        -3.752907         0.702035        -1.996304
 C        -2.475645         0.281554        -1.534467
 C        -1.527700        -0.658508        -2.252447
 C        -2.216078        -1.108667        -0.945084
 C        -1.420463        -1.303588         0.306355
 C        -0.378212        -0.226889         0.378741
 O         0.827973        -0.445113         0.506348
 C        -0.776475         1.133808        -0.149229
 O        -2.067123         1.261700        -0.481108
 H        -4.171570         0.149244        -2.828000
 H        -4.561096         0.763181        -1.240368
 H        -3.619605         1.763673        -2.450199
 H        -1.945995        -0.954027        -3.199009
 H        -0.516431        -0.422019        -2.302030
 H        -3.040205        -1.888458        -1.020688
 H        -2.135126        -1.390626         1.164311
 H        -0.819012        -2.184227         0.506158
 H        -0.411966         1.952108         0.547370
 H        -0.204383         1.334256        -1.099886
