19
Iteration:    16charge 0 multiplicity 1
 C        -3.991703         0.608872        -1.154536
 C        -2.542163         0.170574        -1.549835
 C        -2.324615        -1.206236        -2.340946
 C        -2.102381        -1.068728        -0.822986
 C        -0.616103        -1.230921        -0.414099
 C        -0.275829        -0.052404         0.443856
 O         0.263600        -0.011689         1.531390
 C        -0.696871         1.247647        -0.330634
 O        -1.495346         1.144945        -1.605558
 H        -4.095905         0.821238        -0.107432
 H        -4.221478         1.551353        -1.620750
 H        -4.669047        -0.228646        -1.467912
 H        -3.175270        -1.745346        -2.794844
 H        -1.343991        -1.156656        -2.886971
 H        -2.820017        -1.388368        -0.081355
 H        -0.313988        -2.223587        -0.047586
 H        -0.080121        -1.007838        -1.377575
 H        -1.125956         1.967745         0.419708
 H         0.328914         1.688445        -0.656783
