19
Iteration:  1774
 C        -3.955798         0.645241        -1.832344
 C        -2.528526         0.246675        -1.490624
 C        -1.696758        -0.877574        -2.209616
 C        -2.285018        -1.093343        -0.819787
 C        -1.272909        -1.329704         0.257658
 C        -0.318115        -0.190613         0.247205
 O         0.837372        -0.384968         0.600980
 C        -0.884435         1.195933         0.114456
 O        -1.694030         1.443733        -1.080352
 H        -3.926895         1.644279        -2.306531
 H        -4.460757        -0.113483        -2.506885
 H        -4.607914         0.606177        -0.845306
 H        -2.071098        -1.563098        -3.006828
 H        -0.609400        -0.616755        -2.226566
 H        -3.111432        -1.792666        -0.810104
 H        -1.692249        -1.386744         1.238982
 H        -0.616814        -2.224571         0.080424
 H        -1.552914         1.402208         0.952245
 H        -0.151462         1.982424         0.044077
