19
Iteration:  3372charge 0 multiplicity 1
 C        -4.009499         0.629442        -1.487228
 C        -2.480947         0.360232        -1.519870
 C        -2.193903        -0.843864        -2.582633
 C        -2.194323        -1.175994        -1.117054
 C        -0.917614        -1.365373        -0.251330
 C        -0.265167        -0.141657         0.477716
 O         0.576749        -0.305542         1.369880
 C        -0.592391         1.185272        -0.074801
 O        -1.667931         1.319752        -1.123856
 H        -4.392850         1.670577        -1.527118
 H        -4.478972         0.227942        -2.409268
 H        -4.548323         0.073219        -0.680716
 H        -3.189997        -0.998751        -2.996627
 H        -1.205094        -0.909519        -3.143372
 H        -2.993936        -1.671953        -0.587921
 H        -1.153846        -2.153805         0.432872
 H        -0.010656        -1.676117        -0.752589
 H        -0.772466         1.580784         0.960936
 H         0.239440         1.889605        -0.400374
