19
Iteration:  2553charge 0 multiplicity 1
 C        -3.851571         0.648164        -1.935017
 C        -2.462189         0.229750        -1.426290
 C        -1.714317        -0.822732        -2.194950
 C        -2.263670        -1.167505        -0.798537
 C        -1.269097        -1.376040         0.292325
 C        -0.303230        -0.150205         0.303842
 O         0.908044        -0.307531         0.352139
 C        -1.097609         1.128508         0.254111
 O        -1.731595         1.437798        -1.008953
 H        -3.673743         1.634832        -2.431626
 H        -4.259173         0.092302        -2.779666
 H        -4.545566         0.717788        -1.067636
 H        -2.202580        -1.180845        -3.047478
 H        -0.633842        -0.779297        -2.200034
 H        -3.136213        -1.826646        -0.817445
 H        -1.663011        -1.387329         1.377644
 H        -0.648029        -2.213100         0.112848
 H        -1.876272         1.006052         1.007760
 H        -0.448234         2.010169         0.552491
