19
Iteration:  4376
 C        -3.790937         0.673855        -1.987404
 C        -2.399737         0.252167        -1.461979
 C        -1.550039        -0.631635        -2.251039
 C        -2.210758        -1.168127        -0.964013
 C        -1.394291        -1.299491         0.248963
 C        -0.418232        -0.153716         0.347154
 O         0.720268        -0.459661         0.521090
 C        -0.682248         1.160893        -0.127111
 O        -2.031711         1.301931        -0.512817
 H        -4.144521        -0.155700        -2.592572
 H        -4.371864         0.662762        -1.120358
 H        -3.765472         1.714345        -2.489149
 H        -2.065678        -1.058113        -3.139699
 H        -0.520172        -0.474170        -2.284019
 H        -3.126461        -1.769756        -1.063595
 H        -2.039912        -1.370783         1.181851
 H        -0.949805        -2.239060         0.116032
 H        -0.546156         1.954734         0.686212
 H         0.045806         1.281952        -0.912018
