19
Iteration:  1819
 C        -3.771159         0.815914        -2.179430
 C        -2.547540         0.198913        -1.440403
 C        -1.941603        -1.005251        -2.217288
 C        -2.295682        -1.149156        -0.757807
 C        -1.181509        -1.335316         0.273941
 C        -0.253432        -0.202431         0.340090
 O         0.966797        -0.181170         0.455132
 C        -0.873626         1.102707         0.247077
 O        -1.859405         1.345293        -0.831773
 H        -3.408629         1.805711        -2.506329
 H        -4.125363         0.246348        -3.092921
 H        -4.829110         0.925643        -1.693917
 H        -2.681273        -1.388100        -2.918740
 H        -0.966564        -0.958080        -2.732144
 H        -3.260390        -1.696262        -0.578640
 H        -1.592555        -1.411122         1.238002
 H        -0.732404        -2.348749        -0.005324
 H        -1.410728         1.291163         1.214304
 H        -0.140931         1.839251         0.067709
