19
Iteration:   501
 C        -3.974724         0.255382        -2.006237
 C        -2.563971         0.208704        -1.450725
 C        -1.444656        -0.525541        -2.186203
 C        -2.080406        -1.132959        -0.968840
 C        -1.446169        -1.002688         0.389293
 C        -0.224200        -0.095850         0.265258
 O         0.898723        -0.530265         0.368087
 C        -0.746645         1.285208        -0.142691
 O        -2.156146         1.225963        -0.477410
 H        -4.012474         0.423919        -3.059513
 H        -4.569202        -0.661014        -1.777557
 H        -4.551940         1.050752        -1.459731
 H        -1.691536        -0.915997        -3.233127
 H        -0.415759        -0.153234        -2.023024
 H        -2.696509        -2.037010        -0.964932
 H        -2.124899        -0.570879         1.068840
 H        -1.053418        -1.987965         0.878930
 H        -0.640866         2.022926         0.681787
 H        -0.173633         1.814879        -0.997749
