19
Iteration:  2039
 C        -3.915042         0.820556        -1.490712
 C        -2.519190         0.202488        -1.483447
 C        -2.262712        -0.891966        -2.462819
 C        -2.170229        -1.311078        -1.006560
 C        -0.902758        -1.479774        -0.207178
 C        -0.375052        -0.075131         0.548869
 O         0.639072        -0.137442         1.196453
 C        -0.899500         1.300973         0.023443
 O        -1.418844         1.167478        -1.340221
 H        -4.091414         1.295482        -2.439062
 H        -4.692881         0.036445        -1.456914
 H        -4.097562         1.513558        -0.695364
 H        -3.156842        -1.206794        -3.002386
 H        -1.322517        -0.907239        -3.089658
 H        -3.011241        -1.920588        -0.674958
 H        -0.891413        -2.129280         0.725174
 H         0.095843        -1.694486        -0.705435
 H        -1.648086         1.787473         0.684807
 H         0.021179         1.983212         0.055387
