19
Iteration:  4515charge 0 multiplicity 1
 C        -3.990875         0.626554        -1.906721
 C        -2.559671         0.302268        -1.498404
 C        -1.697593        -0.636606        -2.411852
 C        -2.178303        -1.119813        -1.070212
 C        -1.333553        -1.288937         0.213494
 C        -0.207320        -0.285349         0.403449
 O         0.938580        -0.547024         0.774471
 C        -0.791750         1.160155         0.045023
 O        -1.944486         1.388385        -0.768612
 H        -4.623842        -0.123112        -2.359387
 H        -4.554635         1.164727        -1.140289
 H        -3.766177         1.446616        -2.651423
 H        -2.226383        -0.854222        -3.322948
 H        -0.691487        -0.501097        -2.477209
 H        -3.008462        -1.859343        -1.053316
 H        -1.889751        -0.896990         1.062967
 H        -0.893631        -2.313228         0.176236
 H        -1.054844         1.723465         0.904770
 H         0.102713         1.675566        -0.363378
