19
Iteration:  4328charge 0 multiplicity 1
 C        -4.075707         0.645304        -1.941357
 C        -2.570565         0.322500        -1.548107
 C        -1.667084        -0.536372        -2.369179
 C        -2.212632        -0.999355        -0.971338
 C        -1.267270        -1.323796         0.271678
 C        -0.216758        -0.311394         0.330405
 O         0.875863        -0.482697         0.813947
 C        -0.723093         1.027962        -0.002491
 O        -1.916917         1.335933        -0.817833
 H        -4.430617        -0.399149        -2.129732
 H        -4.630946         1.124260        -1.004284
 H        -3.886225         1.350663        -2.761448
 H        -2.124773        -1.031062        -3.202023
 H        -0.582178        -0.225106        -2.431864
 H        -2.841628        -1.884023        -1.192745
 H        -1.952338        -1.220605         1.149670
 H        -0.855964        -2.425341         0.178765
 H        -1.059663         1.456375         0.937682
 H         0.006449         1.734524        -0.551751
