19
Iteration:  2409
 C        -3.880694         0.696254        -1.493622
 C        -2.447939         0.156880        -1.560849
 C        -2.008218        -0.890457        -2.625988
 C        -2.188597        -1.208737        -1.021346
 C        -1.125032        -1.331023         0.050536
 C        -0.268410        -0.072454         0.399082
 O         0.808008        -0.170188         0.964883
 C        -1.056533         1.244781         0.156308
 O        -1.559016         1.188940        -1.173337
 H        -4.200912         1.403222        -2.331468
 H        -4.681566        -0.093893        -1.318413
 H        -3.749717         1.310939        -0.566464
 H        -2.772471        -1.248589        -3.402423
 H        -0.987725        -0.816144        -3.052806
 H        -3.060040        -1.828716        -0.719746
 H        -1.801497        -1.263798         0.974563
 H        -0.710303        -2.332894        -0.138759
 H        -1.769517         1.379148         1.022897
 H        -0.340709         2.079931         0.169246
