19
Iteration:  4255
 C        -4.018600         0.707394        -1.783154
 C        -2.485795         0.282750        -1.557245
 C        -1.791400        -0.745429        -2.383750
 C        -2.305910        -1.121860        -0.977212
 C        -1.144977        -1.425504        -0.094693
 C        -0.251583        -0.309290         0.335187
 O         0.757369        -0.373887         1.070836
 C        -0.735981         1.155246        -0.072037
 O        -1.828502         1.453231        -0.831851
 H        -4.362462        -0.037539        -2.465466
 H        -4.506977         0.607546        -0.832713
 H        -3.980005         1.752899        -2.192064
 H        -2.251816        -1.160782        -3.218606
 H        -0.693493        -0.601500        -2.453552
 H        -3.242807        -1.781985        -0.822830
 H        -1.422034        -1.670249         0.976579
 H        -0.523435        -2.192375        -0.486829
 H        -0.977923         1.770044         0.851879
 H         0.094068         1.560248        -0.614524
