19
Iteration:   897charge 0 multiplicity 1
 C        -3.730939         0.612540        -0.663390
 C        -2.452009         0.177213        -1.374550
 C        -2.331672        -0.889061        -2.463700
 C        -1.904209        -1.154168        -0.953403
 C        -0.490127        -1.285030        -0.616596
 C        -0.457315        -0.046517         0.325222
 O        -0.477589        -0.105747         1.538551
 C        -0.563861         1.277643        -0.505440
 O        -1.342416         1.058181        -1.599325
 H        -4.434363         1.251594        -1.299949
 H        -4.272075        -0.302462        -0.289079
 H        -3.497929         1.193783         0.259819
 H        -3.059996        -1.489671        -2.931694
 H        -1.416490        -0.701406        -3.054213
 H        -2.467523        -1.917365        -0.373456
 H        -0.240981        -2.170489        -0.032203
 H         0.268647        -1.072974        -1.484859
 H        -0.975087         2.086214         0.103296
 H         0.534152         1.604373        -0.746589
