19
Iteration:  2629charge 0 multiplicity 1
 C        -3.947810         0.741447        -1.602920
 C        -2.487032         0.196223        -1.555142
 C        -1.700095        -0.747238        -2.387743
 C        -2.152125        -1.178339        -0.944140
 C        -1.180088        -1.435263         0.200188
 C        -0.325592        -0.235134         0.397564
 O         0.837951        -0.251990         0.704293
 C        -1.100477         1.169724         0.092310
 O        -1.721442         1.354637        -1.158267
 H        -4.191246         1.266565        -2.541994
 H        -4.710688         0.042804        -1.328076
 H        -3.941473         1.432322        -0.731043
 H        -2.166148        -1.211756        -3.200493
 H        -0.758169        -0.477122        -2.711343
 H        -2.887986        -1.934821        -0.942088
 H        -1.570950        -1.656110         1.258853
 H        -0.591470        -2.307856         0.152093
 H        -1.861551         1.173148         0.937126
 H        -0.271368         1.929211         0.113694
