19
Iteration:  2222charge 0 multiplicity 1
 C        -3.766709         0.662760        -0.806930
 C        -2.463951         0.188409        -1.397709
 C        -2.410517        -0.818042        -2.450388
 C        -1.918889        -1.195133        -1.026454
 C        -0.448541        -1.236821        -0.595428
 C        -0.452530        -0.090115         0.401168
 O        -0.315212        -0.056622         1.599289
 C        -0.636048         1.194789        -0.377986
 O        -1.308700         0.977278        -1.657532
 H        -4.410092         1.245852        -1.507575
 H        -4.395412        -0.164021        -0.322882
 H        -3.551715         1.421902         0.033240
 H        -3.357302        -1.330412        -2.713368
 H        -1.556969        -0.691216        -3.053807
 H        -2.541455        -1.687076        -0.320237
 H        -0.410686        -2.217385        -0.059984
 H         0.282329        -1.170272        -1.386777
 H        -1.155256         2.092168         0.073042
 H         0.412876         1.328866        -0.608447
