19
Iteration:  3541charge 0 multiplicity 1
 C        -3.887397         0.621122        -1.112592
 C        -2.463449         0.211786        -1.429098
 C        -2.396517        -0.711275        -2.541078
 C        -1.996277        -1.135958        -1.072191
 C        -0.476657        -1.372264        -0.603181
 C        -0.341699        -0.184958         0.379234
 O        -0.217586        -0.201175         1.605522
 C        -0.432722         1.120625        -0.270572
 O        -1.502029         1.257700        -1.246950
 H        -4.504751         0.763554        -2.017116
 H        -4.482081        -0.113567        -0.433906
 H        -3.757350         1.500488        -0.444952
 H        -3.376792        -0.888827        -2.872160
 H        -1.560158        -0.833508        -3.230626
 H        -2.632839        -1.735664        -0.487504
 H        -0.314445        -2.405188        -0.238229
 H         0.295888        -1.089614        -1.383641
 H        -0.418207         2.079026         0.308804
 H         0.365194         1.263036        -0.967917
