19
Iteration:  1602charge 0 multiplicity 1
 C        -3.751430         0.998634        -1.304649
 C        -2.507239         0.128541        -1.472322
 C        -2.370586        -1.026634        -2.386573
 C        -2.141742        -1.228116        -0.901137
 C        -0.608859        -1.285235        -0.510682
 C        -0.310551        -0.112382         0.410550
 O         0.330107        -0.095408         1.463510
 C        -0.965595         1.181191        -0.118927
 O        -1.454414         1.030167        -1.427428
 H        -3.576893         1.763559        -2.071537
 H        -4.701244         0.476622        -1.446110
 H        -3.734893         1.401133        -0.313681
 H        -3.267919        -1.553337        -2.798595
 H        -1.552329        -1.140235        -3.097472
 H        -2.848790        -1.813927        -0.343468
 H        -0.370511        -2.219084         0.050312
 H         0.059302        -1.174388        -1.434200
 H        -1.759564         1.532834         0.660740
 H        -0.202355         1.925337        -0.212412
