19
Iteration:  2142charge 0 multiplicity 1
 C        -3.857123         0.878759        -0.906101
 C        -2.516943         0.160698        -1.456991
 C        -2.397701        -1.007685        -2.411989
 C        -1.969381        -1.203744        -0.965650
 C        -0.457881        -1.335353        -0.669273
 C        -0.263616        -0.115607         0.437352
 O        -0.204873        -0.110219         1.663715
 C        -0.669370         1.288701        -0.345040
 O        -1.351716         1.010592        -1.619399
 H        -3.873257         1.944825        -1.370746
 H        -4.798733         0.389626        -1.215319
 H        -3.922808         1.081816         0.213414
 H        -3.216486        -1.462633        -2.925664
 H        -1.528434        -0.845968        -3.095412
 H        -2.545577        -1.918936        -0.317365
 H        -0.395716        -2.271241        -0.173042
 H         0.279899        -1.160379        -1.451092
 H        -1.497378         1.906817         0.127562
 H         0.161207         1.964005        -0.524893
