19
Iteration:   556charge 0 multiplicity 1
 C        -3.990303         0.647924        -2.035487
 C        -2.623741         0.120146        -1.401224
 C        -1.531692        -0.636808        -2.108441
 C        -2.147150        -1.224875        -0.858906
 C        -1.198000        -1.298819         0.383848
 C        -0.247090        -0.116384         0.259816
 O         0.942508        -0.328489         0.495110
 C        -0.838647         1.224156        -0.187099
 O        -2.210417         1.236587        -0.708538
 H        -3.751280         0.992765        -3.000722
 H        -4.705008        -0.149087        -1.994444
 H        -4.110978         1.626153        -1.517724
 H        -1.834833        -1.164096        -3.088388
 H        -0.480860        -0.311439        -1.997898
 H        -2.711781        -2.188743        -0.891130
 H        -1.643275        -1.266553         1.333874
 H        -0.447241        -2.218284         0.352252
 H        -0.827223         1.905329         0.684970
 H        -0.109123         1.688565        -0.933400
