19
Iteration:   690
 C        -3.742517         0.777641        -1.346941
 C        -2.424518         0.129635        -1.563675
 C        -2.299655        -1.036386        -2.608575
 C        -2.090101        -1.339812        -1.083736
 C        -0.876280        -1.389103        -0.103333
 C        -0.328232        -0.025363         0.412204
 O         0.710969         0.108383         1.077349
 C        -1.244229         1.242091         0.164837
 O        -1.455573         1.137896        -1.270972
 H        -3.900419         1.593983        -2.092879
 H        -4.631032         0.179425        -1.215931
 H        -3.609691         1.277176        -0.440871
 H        -3.148734        -1.561087        -2.985545
 H        -1.474205        -1.156875        -3.208182
 H        -2.895259        -1.910844        -0.597690
 H        -1.299802        -1.938280         0.708891
 H        -0.140532        -2.137443        -0.461224
 H        -2.108984         1.310249         0.805087
 H        -0.608649         2.139942         0.286798
