19
Iteration:  3647charge 0 multiplicity 1
 C        -3.839003         0.626390        -1.066180
 C        -2.442347         0.233828        -1.448593
 C        -2.300208        -0.635642        -2.639635
 C        -2.048447        -1.134221        -1.137294
 C        -0.707782        -1.277311        -0.495217
 C        -0.382556        -0.135892         0.512189
 O         0.095184        -0.360519         1.583719
 C        -0.730641         1.194678        -0.164521
 O        -1.374204         1.139418        -1.403747
 H        -4.585322        -0.186731        -0.905657
 H        -3.882153         1.248867        -0.209151
 H        -4.291270         1.162586        -1.978540
 H        -3.172705        -1.066052        -2.990570
 H        -1.568668        -0.482837        -3.422120
 H        -2.897219        -1.743753        -0.914447
 H        -0.607040        -2.226966         0.063914
 H         0.085989        -1.234487        -1.301892
 H        -1.294785         1.892315         0.543192
 H         0.270794         1.737737        -0.322092
