19
Iteration:   999
 C        -3.852041         0.773122        -1.323268
 C        -2.482088         0.185570        -1.507612
 C        -2.343518        -0.934637        -2.474717
 C        -2.132122        -1.212853        -0.961140
 C        -0.714653        -1.349045        -0.332251
 C        -0.362505        -0.139778         0.411600
 O         0.358887        -0.091194         1.426613
 C        -0.828085         1.236293        -0.138791
 O        -1.421926         1.152641        -1.409826
 H        -4.030543         1.580445        -2.008251
 H        -4.524091        -0.063537        -1.395869
 H        -3.894635         1.141052        -0.305344
 H        -3.353009        -1.304988        -2.813751
 H        -1.502792        -0.960761        -3.188089
 H        -2.948895        -1.693469        -0.460123
 H        -0.661861        -2.230967         0.406624
 H         0.078473        -1.565969        -1.081607
 H        -1.485521         1.624570         0.673875
 H         0.098337         1.820937        -0.021905
