19
Iteration:   550charge 0 multiplicity 1
 C        -3.925787         0.580469        -2.018998
 C        -2.607463         0.170192        -1.370572
 C        -1.512847        -0.640957        -2.151799
 C        -2.139332        -1.238711        -0.870714
 C        -1.243719        -1.266853         0.369046
 C        -0.271668        -0.156484         0.273507
 O         0.938518        -0.326480         0.464138
 C        -0.825185         1.200268        -0.225923
 O        -2.218448         1.268718        -0.623463
 H        -3.708019         0.843902        -3.123804
 H        -4.770231        -0.148090        -1.978314
 H        -4.256641         1.537895        -1.600102
 H        -1.788890        -1.086570        -3.041572
 H        -0.498605        -0.269024        -2.117756
 H        -2.726583        -2.142364        -1.055443
 H        -1.724650        -1.088474         1.416263
 H        -0.563194        -2.031280         0.562565
 H        -0.792399         1.926154         0.600923
 H        -0.204800         1.633867        -1.002671
