19
Iteration:   213
 C        -3.905118         0.643560        -1.211773
 C        -2.471350         0.087677        -1.412946
 C        -2.463294        -1.182367        -2.174959
 C        -2.038146        -1.171391        -0.743588
 C        -0.509229        -1.134776        -0.565066
 C        -0.243040         0.000060         0.320775
 O         0.039856        -0.023036         1.486521
 C        -0.743332         1.326588        -0.336404
 O        -1.380477         1.057751        -1.589091
 H        -4.622614         0.125786        -1.849000
 H        -4.160099         0.685967        -0.149156
 H        -3.853475         1.662177        -1.484194
 H        -3.403289        -1.580903        -2.500130
 H        -1.703013        -1.475050        -2.925418
 H        -2.573909        -1.612353         0.184665
 H        -0.079056        -2.096391        -0.186911
 H        -0.032586        -0.949473        -1.542255
 H        -1.406090         1.802720         0.365144
 H        -0.053606         2.081891        -0.622255
