19
Iteration:  3657
 C        -3.920495         0.709092        -1.100537
 C        -2.465890         0.215638        -1.471870
 C        -2.318331        -0.710924        -2.624650
 C        -2.027068        -1.137316        -1.099018
 C        -0.685227        -1.270459        -0.528772
 C        -0.452514        -0.161556         0.485354
 O         0.149141        -0.417167         1.560655
 C        -0.781147         1.296945        -0.089058
 O        -1.286441         1.128350        -1.443820
 H        -4.363405        -0.251195        -0.759032
 H        -3.924017         1.402539        -0.323556
 H        -4.468200         1.179060        -1.984359
 H        -3.211465        -1.031807        -3.073323
 H        -1.407545        -0.544471        -3.205257
 H        -2.744759        -1.727924        -0.509008
 H        -0.519261        -2.234662         0.005579
 H         0.182126        -1.057026        -1.232865
 H        -1.502040         1.732585         0.607797
 H         0.146138         1.879230        -0.088654
