19
Iteration:  2742charge 0 multiplicity 1
 C        -3.765407         0.835500        -1.206774
 C        -2.460585         0.175412        -1.453911
 C        -2.386177        -0.913268        -2.465721
 C        -2.109273        -1.229999        -1.002284
 C        -0.727944        -1.377398        -0.379145
 C        -0.274737        -0.074984         0.407976
 O         0.359205        -0.055332         1.426454
 C        -1.024749         1.210888        -0.083742
 O        -1.327072         1.066360        -1.510359
 H        -4.051852         1.531061        -1.981605
 H        -4.583998         0.057795        -1.353877
 H        -3.825425         1.128324        -0.157870
 H        -3.365364        -1.254739        -2.906237
 H        -1.535100        -0.982610        -3.252072
 H        -2.911343        -1.891065        -0.553221
 H        -0.655998        -2.088454         0.447377
 H        -0.059778        -1.599608        -1.186818
 H        -1.953853         1.346463         0.648969
 H        -0.389051         2.096398         0.000268
