19
Iteration:  2089charge 0 multiplicity 1
 C        -3.832926         0.830083        -1.090387
 C        -2.477994         0.204984        -1.564778
 C        -2.298177        -1.035031        -2.526436
 C        -2.091233        -1.174802        -1.039830
 C        -0.739517        -1.474882        -0.350854
 C        -0.332919        -0.129236         0.437713
 O         0.254245        -0.123828         1.551198
 C        -0.849826         1.282801        -0.214223
 O        -1.394700         1.194916        -1.540431
 H        -4.520882         1.485933        -1.709516
 H        -4.522029         0.104425        -0.621939
 H        -3.425418         1.396980        -0.179707
 H        -3.091777        -1.540812        -3.020682
 H        -1.446842        -1.020741        -3.211056
 H        -2.962989        -1.658666        -0.519386
 H        -0.587928        -2.280596         0.349145
 H         0.054366        -1.406293        -1.077369
 H        -1.597204         1.864280         0.416634
 H         0.003746         1.902243        -0.255512
