19
Iteration:  4823
 C        -3.970784         0.599881        -1.655077
 C        -2.521651         0.284790        -1.448635
 C        -1.663173        -0.558456        -2.503683
 C        -2.198851        -1.171137        -1.151113
 C        -1.335766        -1.178041         0.053127
 C        -0.218593        -0.155123         0.338369
 O         0.640338        -0.566937         1.160643
 C        -0.510550         1.157055        -0.452601
 O        -1.923933         1.292582        -0.588211
 H        -4.403988        -0.298472        -2.179904
 H        -4.495981         0.681193        -0.744285
 H        -4.413096         1.491093        -2.400926
 H        -2.273575        -0.827854        -3.385855
 H        -0.527394        -0.354345        -2.608716
 H        -3.086226        -1.711950        -1.397906
 H        -1.911941        -1.340745         0.983242
 H        -0.923807        -2.233627         0.050091
 H        -0.187389         2.143657        -0.001434
 H        -0.023091         1.120358        -1.448895
