19
Iteration:   811
 C        -3.955376         0.473503        -0.907407
 C        -2.525995         0.165100        -1.398136
 C        -2.100328        -0.820190        -2.459812
 C        -2.011519        -1.161496        -0.914361
 C        -0.668961        -1.375789        -0.449284
 C        -0.341099        -0.078816         0.342824
 O        -0.107790         0.040049         1.522446
 C        -0.442471         1.177190        -0.487072
 O        -1.590298         1.186430        -1.474372
 H        -4.335145         1.474084        -1.116776
 H        -4.559058        -0.259379        -1.429745
 H        -4.050388         0.282333         0.097703
 H        -2.819168        -1.126879        -3.200283
 H        -1.198170        -0.329745        -2.889806
 H        -2.877196        -1.774666        -0.702258
 H        -0.407668        -2.234522         0.166293
 H         0.068488        -1.471308        -1.339661
 H        -0.489772         2.077914         0.089591
 H         0.548915         1.224865        -0.996862
