19
Iteration:  2671
 C        -3.923250         0.720392        -1.733908
 C        -2.511271         0.210119        -1.477257
 C        -2.143194        -0.860905        -2.411404
 C        -2.332865        -1.193376        -0.879462
 C        -0.928341        -1.301994        -0.140190
 C        -0.255088        -0.035740         0.344455
 O         0.808079        -0.185004         0.973100
 C        -1.059004         1.152256         0.259287
 O        -1.441174         1.155630        -1.127046
 H        -3.957242         1.539895        -2.492350
 H        -4.372182        -0.020770        -2.356681
 H        -4.539253         0.848525        -0.832084
 H        -2.911146        -1.102970        -3.121802
 H        -1.138837        -0.867684        -2.787605
 H        -3.124299        -1.848554        -0.537643
 H        -1.200106        -1.811770         0.826562
 H        -0.257623        -1.969998        -0.728730
 H        -1.969490         1.386975         0.820592
 H        -0.359783         2.061405         0.297127
