19
Iteration:  3492charge 0 multiplicity 1
 C        -3.750195         0.823677        -0.929078
 C        -2.448066         0.206568        -1.466229
 C        -2.300148        -0.853078        -2.536840
 C        -2.052533        -1.161893        -1.027110
 C        -0.549754        -1.278092        -0.633467
 C        -0.345772        -0.122547         0.384813
 O        -0.052679        -0.289016         1.546881
 C        -0.853948         1.223552        -0.166728
 O        -1.349648         1.080635        -1.469897
 H        -3.976955         1.788937        -1.429157
 H        -4.514329         0.221426        -1.369837
 H        -3.927986         0.768694         0.151129
 H        -3.283668        -1.209061        -2.914973
 H        -1.413436        -0.810788        -3.225232
 H        -2.830100        -1.759900        -0.471131
 H        -0.285223        -2.030221         0.101034
 H        -0.048815        -1.389738        -1.560895
 H        -1.557164         1.798511         0.433895
 H         0.058401         1.921814        -0.287368
