19
Iteration:    26
 C        -4.001473         0.546067        -1.181193
 C        -2.561894         0.153385        -1.544539
 C        -2.335808        -1.153161        -2.251447
 C        -2.093836        -1.059190        -0.773341
 C        -0.613677        -1.166278        -0.487738
 C        -0.284222        -0.040289         0.450946
 O         0.202696        -0.063035         1.599725
 C        -0.578241         1.241031        -0.430448
 O        -1.502331         1.224990        -1.604851
 H        -4.089518         0.370970        -0.152085
 H        -4.345882         1.477585        -1.523892
 H        -4.763674        -0.161591        -1.659387
 H        -3.208461        -1.727112        -2.622370
 H        -1.422882        -1.503496        -2.863412
 H        -2.661918        -1.666114        -0.140891
 H        -0.465501        -2.201032        -0.177119
 H         0.017732        -1.004344        -1.414302
 H        -0.948912         2.048682         0.253064
 H         0.490346         1.560536        -0.838156
