19
Iteration:  1160charge 0 multiplicity 1
 C        -3.569910         0.738806        -2.226057
 C        -2.473524         0.198469        -1.448931
 C        -1.749109        -1.000223        -2.089503
 C        -2.319800        -1.116852        -0.710009
 C        -1.312042        -1.321478         0.387206
 C        -0.328174        -0.190335         0.265288
 O         0.849261        -0.080293         0.003480
 C        -1.066394         1.085652         0.435776
 O        -1.816618         1.279502        -0.762927
 H        -3.172725         1.374534        -3.122994
 H        -4.332258        -0.056055        -2.495917
 H        -4.293538         1.398581        -1.671469
 H        -2.433014        -1.568438        -2.689869
 H        -0.605279        -1.026069        -2.143071
 H        -3.157672        -1.742411        -0.574928
 H        -1.741315        -0.956171         1.262628
 H        -0.824131        -2.331048         0.448660
 H        -1.684861         1.139424         1.407853
 H        -0.259978         1.890009         0.505591
