19
Iteration:  3777charge 0 multiplicity 1
 C        -3.909059         0.736982        -1.296554
 C        -2.476358         0.361973        -1.518543
 C        -2.046373        -0.766117        -2.559359
 C        -2.156884        -1.188612        -1.127193
 C        -0.905237        -1.468524        -0.297572
 C        -0.396751        -0.217029         0.410952
 O         0.438788        -0.271226         1.275622
 C        -0.861271         1.123692         0.011420
 O        -1.466288         1.331345        -1.222982
 H        -4.529430         0.138035        -1.965972
 H        -4.228421         0.522127        -0.335523
 H        -3.971505         1.856786        -1.376385
 H        -2.711619        -1.235602        -3.273229
 H        -1.065925        -0.692539        -2.947441
 H        -3.144546        -1.556802        -0.865550
 H        -1.157558        -2.182283         0.537658
 H        -0.053463        -2.023276        -0.883167
 H        -1.541200         1.483303         0.888388
 H         0.054954         1.776312         0.061452
