19
Iteration:  4918
 C        -3.758666         0.610822        -2.035337
 C        -2.458547         0.291467        -1.393507
 C        -1.760765        -0.680753        -2.292020
 C        -2.401212        -1.165074        -0.975877
 C        -1.295544        -1.384543         0.046410
 C        -0.300952        -0.228891         0.239454
 O         0.822749        -0.417859         0.735854
 C        -0.709764         1.232044        -0.004856
 O        -1.943099         1.385066        -0.592614
 H        -4.204585        -0.208586        -2.645294
 H        -4.488644         0.844764        -1.272954
 H        -3.734590         1.533855        -2.622067
 H        -2.341538        -0.960678        -3.142706
 H        -0.602512        -0.764264        -2.292107
 H        -3.394740        -1.572147        -0.712757
 H        -1.680822        -1.622829         1.101498
 H        -0.679231        -2.279346         0.003843
 H        -0.690618         1.752541         0.957382
 H         0.150202         1.732874        -0.509410
