19
Iteration:  1082
 C        -3.902761         0.636903        -1.662270
 C        -2.511782         0.159512        -1.587468
 C        -1.839067        -0.837454        -2.408657
 C        -2.245438        -1.239947        -1.033401
 C        -1.333949        -1.320663         0.281096
 C        -0.262496        -0.133486         0.408176
 O         0.945483        -0.195507         0.719450
 C        -0.934086         1.245471         0.125334
 O        -1.685085         1.283266        -1.086010
 H        -4.082515         1.556376        -2.342921
 H        -4.549565        -0.194678        -2.099348
 H        -4.329890         0.936988        -0.692971
 H        -2.454309        -1.145505        -3.290447
 H        -0.799186        -0.673081        -2.683747
 H        -3.068162        -1.951714        -0.841600
 H        -1.999694        -1.205983         1.079874
 H        -0.801218        -2.281813         0.431926
 H        -1.540656         1.602902         1.023643
 H         0.015017         1.862147        -0.044047
