19
Iteration:   916
 C        -3.672663         0.666655        -0.853362
 C        -2.376167         0.189746        -1.425216
 C        -2.478007        -1.027192        -2.303729
 C        -1.903246        -1.229078        -0.952700
 C        -0.380767        -1.206469        -0.611985
 C        -0.324462        -0.043088         0.294289
 O        -0.464783        -0.238791         1.487971
 C        -0.658843         1.369157        -0.326277
 O        -1.362583         1.126761        -1.623254
 H        -4.289073         1.245072        -1.602433
 H        -4.379153        -0.092723        -0.442675
 H        -3.515638         1.399037         0.017298
 H        -3.468995        -1.295059        -2.521453
 H        -1.897886        -1.130303        -3.191858
 H        -2.629634        -1.592849        -0.229671
 H        -0.090490        -1.977745         0.054491
 H         0.148456        -1.135189        -1.538049
 H        -1.238288         1.921138         0.427683
 H         0.295593         1.840412        -0.507960
