19
Iteration:  1772charge 0 multiplicity 1
 C        -3.951137         0.625788        -1.811947
 C        -2.521652         0.259272        -1.514197
 C        -1.711717        -0.869135        -2.227867
 C        -2.269012        -1.078082        -0.826368
 C        -1.279771        -1.333927         0.269829
 C        -0.311133        -0.197244         0.255276
 O         0.833861        -0.384630         0.604861
 C        -0.881689         1.196322         0.117637
 O        -1.689798         1.438520        -1.075557
 H        -3.946694         1.612558        -2.300300
 H        -4.492487        -0.119068        -2.403190
 H        -4.613558         0.596230        -0.904910
 H        -2.063392        -1.597355        -3.017276
 H        -0.621851        -0.658063        -2.310707
 H        -3.072993        -1.773983        -0.849204
 H        -1.773144        -1.364231         1.246995
 H        -0.672745        -2.211991         0.110401
 H        -1.573233         1.423712         0.978619
 H        -0.166378         2.031302        -0.019984
