19
Iteration:  4451
 C        -3.818863         0.630662        -2.090033
 C        -2.404052         0.320708        -1.416876
 C        -1.553925        -0.653220        -2.251062
 C        -2.265074        -1.153127        -0.999766
 C        -1.413282        -1.280204         0.279545
 C        -0.290761        -0.242661         0.357881
 O         0.886160        -0.541692         0.502177
 C        -0.764944         1.252678        -0.093917
 O        -2.116892         1.328244        -0.447147
 H        -4.206140        -0.184956        -2.714620
 H        -4.545811         0.824136        -1.324183
 H        -3.595051         1.614209        -2.692241
 H        -2.003081        -0.862308        -3.226860
 H        -0.528265        -0.577005        -2.221346
 H        -3.099824        -1.866402        -1.133837
 H        -2.190665        -1.193705         1.072559
 H        -1.083054        -2.280253         0.414961
 H        -0.628385         2.066554         0.689708
 H        -0.114613         1.403106        -0.999660
