19
Iteration:    77charge 0 multiplicity 1
 C        -3.884640         0.735709        -1.018040
 C        -2.522242         0.079088        -1.295999
 C        -2.238061        -1.077147        -2.219152
 C        -1.916524        -1.392000        -0.843828
 C        -0.442025        -1.365449        -0.464626
 C        -0.230173        -0.011894         0.241310
 O        -0.310219         0.203581         1.414043
 C        -0.459745         1.218945        -0.597123
 O        -1.645478         1.145719        -1.431515
 H        -4.632114         0.043430        -0.594045
 H        -3.666619         1.584467        -0.347822
 H        -4.334154         1.337520        -1.834849
 H        -3.152636        -1.530497        -2.514261
 H        -1.555981        -0.995994        -3.095163
 H        -2.510216        -2.079305        -0.348008
 H        -0.141758        -2.218970         0.098071
 H         0.086914        -1.403083        -1.418916
 H        -0.616128         1.985681         0.126642
 H         0.294148         1.480728        -1.256138
