19
Iteration:  1935charge 0 multiplicity 1
 C        -3.856981         0.707096        -1.687100
 C        -2.544431         0.135709        -1.489912
 C        -1.818205        -0.904923        -2.411464
 C        -2.274082        -1.269453        -1.051963
 C        -1.365413        -1.209574         0.104361
 C        -0.296813        -0.043394         0.319077
 O         0.895692        -0.276492         0.612992
 C        -1.014368         1.272436         0.344871
 O        -1.524451         1.218158        -1.041997
 H        -3.867366         1.571682        -2.418219
 H        -4.631457        -0.086736        -1.880979
 H        -4.120426         1.064038        -0.674734
 H        -2.358282        -1.330624        -3.260986
 H        -0.693733        -0.864021        -2.493454
 H        -3.141159        -1.857046        -0.899776
 H        -1.984681        -1.000642         1.063790
 H        -0.778071        -2.087975         0.375510
 H        -1.700898         1.122025         1.172327
 H        -0.416780         2.178073         0.487814
