19
Iteration:  3920
 C        -3.716928         0.964818        -1.675528
 C        -2.499113         0.231481        -1.487496
 C        -2.186898        -0.792055        -2.575035
 C        -2.286342        -1.211441        -1.029642
 C        -0.954360        -1.458711        -0.203585
 C        -0.285712        -0.147979         0.532673
 O         0.855258        -0.202155         0.920358
 C        -1.259705         1.135909         0.410394
 O        -1.460888         1.102710        -1.040267
 H        -4.362848         0.311462        -2.307074
 H        -4.353142         1.280543        -0.853512
 H        -3.486722         1.941617        -2.260399
 H        -2.980883        -0.916231        -3.235155
 H        -1.143074        -0.943146        -2.966355
 H        -3.212849        -1.890160        -0.879991
 H        -1.171532        -2.291569         0.495550
 H        -0.066049        -1.782866        -0.870379
 H        -2.313544         1.079110         0.747826
 H        -0.745744         2.165985         0.554357
