19
Iteration:  3705
 C        -3.730386         1.003249        -1.355951
 C        -2.452685         0.197654        -1.470205
 C        -2.413932        -0.908558        -2.487519
 C        -2.063258        -1.207939        -1.035869
 C        -0.498767        -1.333476        -0.660067
 C        -0.319976        -0.207454         0.425020
 O         0.273966        -0.278615         1.468500
 C        -1.091332         1.059416         0.083588
 O        -1.457496         1.211808        -1.263348
 H        -4.690385         0.542393        -1.059174
 H        -3.542022         1.983678        -0.728076
 H        -3.673666         1.464688        -2.340297
 H        -3.360279        -1.145431        -3.075985
 H        -1.476044        -0.903353        -3.005574
 H        -2.910017        -1.748461        -0.575308
 H        -0.099947        -2.240719        -0.191565
 H         0.177277        -1.010233        -1.445329
 H        -2.049017         0.990691         0.776890
 H        -0.411797         1.922940         0.543182
