19
Iteration:  3507charge 0 multiplicity 1
 C        -3.874995         0.817506        -0.992342
 C        -2.518711         0.196973        -1.425835
 C        -2.228346        -0.866910        -2.458613
 C        -1.981340        -1.203846        -1.003772
 C        -0.540200        -1.303236        -0.549107
 C        -0.388995        -0.107190         0.337401
 O        -0.130984        -0.384749         1.474884
 C        -0.665292         1.293611        -0.215228
 O        -1.436491         1.179463        -1.476288
 H        -4.012160         1.772970        -1.527764
 H        -4.718355         0.090691        -0.943288
 H        -3.631629         1.210892         0.045912
 H        -2.972037        -1.371380        -3.028736
 H        -1.333539        -0.648673        -2.951791
 H        -2.633779        -1.907330        -0.506842
 H        -0.422078        -2.276925        -0.056835
 H         0.244019        -1.146658        -1.328199
 H        -1.169054         1.860956         0.646395
 H         0.268982         1.800404        -0.477171
