19
Iteration:  4906
 C        -3.838005         0.685033        -1.968009
 C        -2.491100         0.287332        -1.383435
 C        -1.726799        -0.717722        -2.306856
 C        -2.251776        -1.081304        -0.926398
 C        -1.254784        -1.393616         0.088354
 C        -0.284846        -0.208391         0.292530
 O         0.794542        -0.511151         0.775288
 C        -0.674987         1.233583        -0.062057
 O        -2.033045         1.398355        -0.688362
 H        -4.055842        -0.025852        -2.778209
 H        -4.670631         0.658405        -1.227563
 H        -3.704368         1.609305        -2.396323
 H        -2.271343        -1.001793        -3.199184
 H        -0.683147        -0.950238        -2.473438
 H        -3.089462        -1.805679        -1.001596
 H        -1.800096        -1.503830         1.097442
 H        -0.719375        -2.246928        -0.284145
 H        -0.807831         1.657329         0.921146
 H         0.066356         1.788151        -0.684548
