19
Iteration:  3408
 C        -3.951296         0.798690        -1.293920
 C        -2.528489         0.279238        -1.436209
 C        -2.142552        -0.775637        -2.429505
 C        -2.098356        -1.183747        -1.002352
 C        -0.760033        -1.409420        -0.410796
 C        -0.315083        -0.203808         0.367813
 O         0.365393        -0.265188         1.384494
 C        -0.838851         1.197146        -0.069467
 O        -1.497299         1.192310        -1.360688
 H        -3.972351         1.910504        -1.078990
 H        -4.480938         0.518610        -2.195440
 H        -4.406968         0.280506        -0.381116
 H        -2.757416        -1.053566        -3.250078
 H        -1.173940        -0.733233        -2.889502
 H        -2.923885        -1.802336        -0.550442
 H        -0.695824        -2.295262         0.275581
 H         0.040038        -1.568776        -1.211522
 H        -1.639691         1.537106         0.645913
 H        -0.077912         1.972544        -0.286844
