19
Iteration:  1839charge 0 multiplicity 1
 C        -3.767240         0.777065        -2.147377
 C        -2.472186         0.236870        -1.487030
 C        -1.941290        -1.033528        -2.306642
 C        -2.359832        -1.166957        -0.849732
 C        -1.214043        -1.270989         0.289302
 C        -0.170494        -0.114045         0.322587
 O         1.053591        -0.319936         0.421114
 C        -1.005744         1.267420         0.347431
 O        -1.863010         1.312567        -0.800461
 H        -3.632326         1.681129        -2.709087
 H        -4.378751         0.074544        -2.616489
 H        -4.511533         0.984271        -1.389482
 H        -2.540152        -1.530606        -3.061840
 H        -0.923112        -1.437292        -2.533786
 H        -3.231952        -1.781908        -0.696809
 H        -1.779983        -1.071381         1.178701
 H        -0.824306        -2.304288         0.356844
 H        -1.596947         1.162858         1.321481
 H        -0.259577         2.027864         0.348912
