19
Iteration:  3726
 C        -3.871043         1.016845        -1.478887
 C        -2.532158         0.305201        -1.476379
 C        -2.324689        -0.866376        -2.486348
 C        -1.995754        -1.243726        -1.041494
 C        -0.625300        -1.265621        -0.577275
 C        -0.330976        -0.206953         0.467039
 O         0.404785        -0.318418         1.425041
 C        -1.072110         1.122706         0.160236
 O        -1.374122         1.069669        -1.261957
 H        -4.673717         0.264201        -1.577186
 H        -4.087391         1.506109        -0.429695
 H        -3.911886         1.890087        -2.167604
 H        -3.347606        -1.192709        -2.805621
 H        -1.662399        -0.874409        -3.320578
 H        -2.732985        -1.967335        -0.663221
 H        -0.568777        -2.280469        -0.177695
 H         0.110984        -0.996790        -1.352676
 H        -1.996592         1.252208         0.776804
 H        -0.400432         2.054878         0.474970
