19
Iteration:  2619charge 0 multiplicity 1
 C        -3.957150         0.706008        -1.591233
 C        -2.562223         0.183429        -1.502710
 C        -1.611429        -0.685791        -2.318341
 C        -2.131455        -1.217356        -0.993919
 C        -1.201050        -1.413100         0.224692
 C        -0.359878        -0.153040         0.289485
 O         0.819749        -0.308080         0.649918
 C        -1.065562         1.208011         0.156052
 O        -1.685771         1.267027        -1.155753
 H        -4.218365         1.219917        -2.527783
 H        -4.740151        -0.001893        -1.372854
 H        -3.900593         1.524063        -0.828025
 H        -2.116284        -1.212729        -3.063402
 H        -0.624140        -0.409778        -2.416007
 H        -2.923317        -1.916635        -1.063116
 H        -1.998579        -1.320502         1.013498
 H        -0.624204        -2.269220         0.172058
 H        -1.785494         1.485764         0.957637
 H        -0.350489         2.047313         0.196393
