19
Iteration:  4445charge 0 multiplicity 1
 C        -3.824170         0.666369        -2.130325
 C        -2.460511         0.263384        -1.416457
 C        -1.551841        -0.592775        -2.277015
 C        -2.274773        -1.153514        -0.947987
 C        -1.446622        -1.244917         0.295007
 C        -0.276903        -0.222990         0.309745
 O         0.896850        -0.550725         0.524252
 C        -0.769920         1.252797        -0.103540
 O        -2.080362         1.262225        -0.428276
 H        -4.047935        -0.178563        -2.813325
 H        -4.669696         0.793255        -1.409055
 H        -3.590131         1.542096        -2.667944
 H        -2.115806        -0.907675        -3.156699
 H        -0.365886        -0.554699        -2.331675
 H        -3.067589        -1.883539        -0.984379
 H        -2.197043        -0.969396         1.063443
 H        -0.881928        -2.244648         0.345181
 H        -0.543176         1.849579         0.780467
 H        -0.147028         1.573934        -0.940068
