19
Iteration:  1424charge 0 multiplicity 1
 C        -3.691188         1.004149        -0.868022
 C        -2.480765         0.149938        -1.409393
 C        -2.520058        -1.026185        -2.415920
 C        -1.892724        -1.290205        -1.023350
 C        -0.405758        -1.281581        -0.611711
 C        -0.417976        -0.081469         0.374242
 O        -0.254250        -0.143869         1.563235
 C        -0.785314         1.286233        -0.315715
 O        -1.299598         0.980742        -1.591432
 H        -3.329477         1.947476        -1.179489
 H        -4.520048         0.690422        -1.479202
 H        -3.814805         0.976444         0.238721
 H        -3.472937        -1.581950        -2.414040
 H        -2.013698        -0.908861        -3.359285
 H        -2.393558        -1.975548        -0.255761
 H        -0.203716        -2.267680        -0.072953
 H         0.368490        -1.112039        -1.478019
 H        -1.413313         1.975559         0.337466
 H         0.148292         1.758713        -0.488827
