19
Iteration:  4494charge 0 multiplicity 1
 C        -3.926962         0.667270        -1.921963
 C        -2.585677         0.249424        -1.446765
 C        -1.558032        -0.497301        -2.209447
 C        -2.186110        -1.135703        -0.999454
 C        -1.399262        -1.406555         0.274725
 C        -0.325919        -0.277628         0.269269
 O         0.815189        -0.493004         0.636008
 C        -0.702028         1.167197        -0.027235
 O        -1.946836         1.349473        -0.805798
 H        -4.411253        -0.292529        -2.102331
 H        -4.413023         1.102338        -1.065461
 H        -3.791469         1.399271        -2.797815
 H        -1.839346        -0.903490        -3.154797
 H        -0.637213        -0.067638        -2.061210
 H        -2.936224        -1.904755        -1.237985
 H        -1.974579        -1.130810         1.174413
 H        -0.784684        -2.310905         0.268060
 H        -0.871632         1.465484         1.029330
 H         0.154257         1.765127        -0.446472
