19
Iteration:  1596
 C        -3.759080         0.949460        -1.273890
 C        -2.484401         0.145752        -1.422910
 C        -2.393918        -1.001741        -2.379358
 C        -2.079100        -1.239566        -0.950509
 C        -0.653347        -1.359479        -0.519535
 C        -0.278973        -0.112374         0.370207
 O         0.257792        -0.087170         1.472792
 C        -0.933622         1.203011        -0.136398
 O        -1.423217         1.069191        -1.434895
 H        -3.772043         1.742600        -2.083267
 H        -4.695564         0.347343        -1.372571
 H        -3.688767         1.429833        -0.247343
 H        -3.317505        -1.409426        -2.731584
 H        -1.576994        -1.231477        -3.058384
 H        -2.818441        -1.783688        -0.307045
 H        -0.381981        -2.153391         0.184529
 H         0.076812        -1.339554        -1.287245
 H        -1.737590         1.574458         0.444985
 H        -0.266994         2.116903        -0.235890
