19
Iteration:  2668charge 0 multiplicity 1
 C        -3.934004         0.707335        -1.735890
 C        -2.481409         0.222726        -1.493404
 C        -2.121870        -0.856235        -2.412422
 C        -2.309222        -1.187798        -0.869153
 C        -0.969687        -1.326362        -0.122842
 C        -0.240535        -0.082608         0.347386
 O         0.810707        -0.165787         0.955712
 C        -1.055943         1.148766         0.246028
 O        -1.462421         1.184888        -1.113740
 H        -4.041797         1.505843        -2.506188
 H        -4.446606        -0.098029        -2.338722
 H        -4.481662         0.928385        -0.812173
 H        -2.991126        -1.064943        -3.102090
 H        -1.005104        -0.879772        -2.802042
 H        -3.191418        -1.894575        -0.626749
 H        -1.233845        -1.615151         0.883693
 H        -0.328907        -2.097639        -0.729704
 H        -1.899540         1.386819         0.858729
 H        -0.395127         2.048357         0.349109
