19
Iteration:  2817charge 0 multiplicity 1
 C        -3.794599         0.699537        -0.882325
 C        -2.448778         0.169390        -1.298339
 C        -2.322574        -0.817947        -2.335638
 C        -1.908419        -1.216082        -1.018844
 C        -0.438147        -1.414932        -0.577118
 C        -0.355351        -0.099915         0.290042
 O        -0.461128        -0.065698         1.474541
 C        -0.432269         1.200386        -0.468524
 O        -1.487329         1.196392        -1.453257
 H        -4.257977         0.767170        -1.852947
 H        -4.394011        -0.036679        -0.249014
 H        -3.819702         1.619420        -0.287202
 H        -3.192703        -1.485264        -2.561573
 H        -1.839319        -0.678563        -3.365765
 H        -2.650497        -1.873938        -0.472288
 H        -0.302597        -2.292772         0.143477
 H         0.287480        -1.478172        -1.364890
 H        -0.609405         1.984618         0.301220
 H         0.515405         1.177924        -0.979070
