19
Iteration:   486
 C        -4.025719         0.411874        -1.969053
 C        -2.566071         0.099272        -1.427982
 C        -1.429436        -0.489736        -2.166931
 C        -1.987133        -1.209237        -0.899370
 C        -1.317155        -1.131208         0.523914
 C        -0.243557        -0.179853         0.256535
 O         0.902856        -0.515437         0.371063
 C        -0.816244         1.310875        -0.155543
 O        -2.246266         1.335940        -0.680085
 H        -3.974858         0.808637        -3.010801
 H        -4.631709        -0.463781        -1.885130
 H        -4.370934         1.230957        -1.401279
 H        -1.654389        -1.095736        -2.973164
 H        -0.491981         0.027306        -2.279942
 H        -2.502338        -2.073681        -1.247572
 H        -2.109968        -0.738816         1.203058
 H        -0.980708        -2.086721         0.774433
 H        -0.898161         1.833429         0.797105
 H        -0.087757         1.711794        -0.811538
