19
Iteration:  4461
 C        -3.738099         0.628402        -1.987225
 C        -2.495749         0.318126        -1.454145
 C        -1.516366        -0.669980        -2.215101
 C        -2.230670        -1.120203        -1.048770
 C        -1.419840        -1.367058         0.260580
 C        -0.345220        -0.248219         0.395963
 O         0.844380        -0.506112         0.477765
 C        -0.717976         1.197010        -0.055546
 O        -2.151931         1.402838        -0.530099
 H        -4.225290        -0.189187        -2.504916
 H        -4.360936         0.930719        -1.137366
 H        -3.927334         1.473036        -2.750566
 H        -1.734062        -0.867744        -3.254138
 H        -0.521604        -0.686461        -2.103378
 H        -3.128851        -1.779936        -1.177638
 H        -1.993231        -1.137460         1.182857
 H        -0.946315        -2.372849         0.360329
 H        -0.462771         2.083825         0.582326
 H        -0.034960         1.370228        -0.939373
