19
Iteration:  3784charge 0 multiplicity 1
 C        -3.942854         0.766656        -1.269349
 C        -2.439925         0.293449        -1.513804
 C        -2.035151        -0.743665        -2.590770
 C        -2.095161        -1.160047        -1.102081
 C        -0.935725        -1.482876        -0.271159
 C        -0.385733        -0.246550         0.346900
 O         0.416854        -0.271310         1.261869
 C        -0.856457         1.132943         0.010838
 O        -1.488594         1.359185        -1.223754
 H        -4.523560         0.173725        -1.998943
 H        -4.250432         0.470240        -0.220314
 H        -4.127154         1.818698        -1.488256
 H        -2.682052        -1.249815        -3.306637
 H        -0.963528        -0.506129        -2.943311
 H        -3.018177        -1.659873        -0.810666
 H        -1.239424        -2.034915         0.614152
 H        -0.165600        -2.131319        -0.551302
 H        -1.517615         1.517523         0.853895
 H         0.115033         1.514938         0.072041
