19
Iteration:  3092charge 0 multiplicity 1
 C        -3.826011         0.811921        -1.672117
 C        -2.345558         0.234143        -1.515009
 C        -1.811086        -0.961142        -2.396983
 C        -2.268315        -1.176391        -0.966915
 C        -1.347978        -1.354106         0.226888
 C        -0.397109        -0.168711         0.478394
 O         0.818658         0.013987         0.363809
 C        -1.204929         1.100476         0.341180
 O        -1.407318         1.134578        -1.051388
 H        -3.750100         1.841885        -2.013396
 H        -4.508523         0.275144        -2.301836
 H        -4.090475         0.655108        -0.631608
 H        -2.485658        -1.405190        -3.132579
 H        -0.703598        -0.983653        -2.515899
 H        -3.128365        -1.931813        -0.964575
 H        -1.896829        -1.439451         1.121417
 H        -0.619574        -2.198446         0.101450
 H        -2.193164         1.111362         0.858096
 H        -0.587314         1.903212         0.674694
