19
Iteration:  1273charge 0 multiplicity 1
 C        -3.873796         0.723970        -1.835742
 C        -2.527453         0.139535        -1.489872
 C        -1.858380        -0.913939        -2.335610
 C        -2.245574        -1.223243        -0.907877
 C        -1.230284        -1.306414         0.161658
 C        -0.308276        -0.124536         0.362047
 O         0.875279        -0.312480         0.621613
 C        -0.917729         1.344545         0.228585
 O        -1.710374         1.303048        -1.020255
 H        -3.689880         1.682408        -2.323312
 H        -4.387403        -0.062619        -2.432848
 H        -4.487822         0.979748        -0.871663
 H        -2.464580        -1.265937        -3.143912
 H        -0.758988        -0.930460        -2.470177
 H        -3.155801        -1.868536        -0.739251
 H        -1.666920        -1.414502         1.118675
 H        -0.609387        -2.152246         0.021934
 H        -1.621272         1.541980         1.120619
 H        -0.063658         1.994412         0.050051
