19
Iteration:  2219
 C        -3.766199         0.645859        -0.816855
 C        -2.462733         0.188401        -1.388210
 C        -2.428575        -0.813215        -2.467276
 C        -1.933450        -1.174032        -1.008921
 C        -0.431367        -1.226819        -0.577616
 C        -0.429717        -0.103345         0.394845
 O        -0.335161        -0.046803         1.602144
 C        -0.612448         1.196465        -0.395945
 O        -1.300227         0.951865        -1.633173
 H        -4.431636         1.267895        -1.469812
 H        -4.302086        -0.195637        -0.386057
 H        -3.575986         1.340994         0.045928
 H        -3.352677        -1.219503        -2.778193
 H        -1.549729        -0.711514        -3.068404
 H        -2.639992        -1.651528        -0.289735
 H        -0.382042        -2.228247        -0.173470
 H         0.140982        -1.117924        -1.487015
 H        -1.194048         2.027988         0.067031
 H         0.396090         1.474412        -0.684571
