19
Iteration:  2744charge 0 multiplicity 1
 C        -3.772144         0.821583        -1.195062
 C        -2.449282         0.180032        -1.466937
 C        -2.401344        -0.896315        -2.459776
 C        -2.105730        -1.237565        -1.012253
 C        -0.720210        -1.367159        -0.361780
 C        -0.299805        -0.070852         0.408058
 O         0.350864        -0.066445         1.436399
 C        -1.003038         1.207575        -0.078173
 O        -1.327100         1.064324        -1.525685
 H        -4.089775         1.524629        -1.979997
 H        -4.560197         0.026390        -1.263686
 H        -3.813244         1.134320        -0.152222
 H        -3.347723        -1.271436        -2.945010
 H        -1.544523        -0.957067        -3.215452
 H        -2.891906        -1.871486        -0.547614
 H        -0.605213        -2.061448         0.416804
 H        -0.023894        -1.597926        -1.213338
 H        -1.936147         1.383698         0.562193
 H        -0.354357         2.109746        -0.082023
