19
Iteration:   132
 C        -3.693437         0.382201        -0.560577
 C        -2.458773         0.110222        -1.444063
 C        -2.564044        -1.092453        -2.514044
 C        -2.022316        -1.273703        -1.046013
 C        -0.597233        -1.223403        -0.350312
 C        -0.465603         0.134435         0.414745
 O        -0.257021         0.259569         1.595724
 C        -0.432352         1.349341        -0.591232
 O        -1.248118         0.969150        -1.808188
 H        -4.659493         0.103857        -0.969946
 H        -3.605260        -0.239591         0.310424
 H        -3.823956         1.476931        -0.296868
 H        -3.571852        -1.466286        -2.696546
 H        -1.802024        -0.966102        -3.300194
 H        -2.721343        -1.690565        -0.463821
 H        -0.558278        -2.008741         0.359979
 H         0.224566        -1.316848        -1.053220
 H        -0.908963         2.213360        -0.211810
 H         0.485015         1.636080        -1.029955
