19
Iteration:  4963charge 0 multiplicity 1
 C        -3.867105         0.824555        -2.033150
 C        -2.557548         0.216394        -1.495743
 C        -1.591651        -0.591440        -2.266327
 C        -2.136648        -1.150771        -0.925739
 C        -1.296611        -1.369321         0.342435
 C        -0.287527        -0.249028         0.301330
 O         0.879237        -0.555942         0.581361
 C        -0.809908         1.154357        -0.035741
 O        -2.140326         1.328828        -0.662547
 H        -4.687627         0.101004        -2.075895
 H        -4.131303         1.623863        -1.433252
 H        -3.664573         1.159557        -3.108576
 H        -1.869766        -0.973197        -3.260710
 H        -0.570975        -0.007456        -2.189249
 H        -2.772477        -2.013369        -1.202392
 H        -1.804560        -1.212341         1.343680
 H        -0.820922        -2.365709         0.462473
 H        -0.731177         1.693990         0.927718
 H        -0.029512         1.631689        -0.644116
