19
Iteration:   328charge 0 multiplicity 1
 C        -3.849633         0.578681        -1.233899
 C        -2.372884         0.110419        -1.647288
 C        -2.110902        -1.057331        -2.562191
 C        -2.206379        -1.234493        -1.025647
 C        -1.077098        -1.254253         0.071476
 C        -0.315263         0.076614         0.475608
 O         0.800946        -0.024575         0.940551
 C        -1.210101         1.372696         0.062457
 O        -1.391433         1.090823        -1.388684
 H        -3.789665         1.099933        -0.292197
 H        -4.494406         1.186157        -1.887030
 H        -4.490098        -0.295224        -0.861624
 H        -2.916544        -1.481074        -3.177160
 H        -1.126242        -1.061658        -3.128296
 H        -3.110270        -1.711299        -0.782951
 H        -1.609732        -1.645757         0.957237
 H        -0.166713        -1.871396         0.050264
 H        -2.175785         1.256628         0.581434
 H        -0.754935         2.393691         0.164549
