19
Iteration:  1907
 C        -3.887145         0.620701        -1.695476
 C        -2.468602         0.254776        -1.499935
 C        -1.682993        -0.739283        -2.325247
 C        -2.153696        -1.060524        -0.917780
 C        -1.343365        -1.375297         0.369521
 C        -0.365633        -0.203309         0.490843
 O         0.824013        -0.365655         0.422420
 C        -1.083885         1.160275         0.158336
 O        -1.601754         1.375356        -1.180954
 H        -4.039445         1.155482        -2.601716
 H        -4.433558        -0.289259        -1.578087
 H        -4.193923         1.197610        -0.807566
 H        -2.167558        -1.287068        -3.135392
 H        -0.661231        -0.631315        -2.542233
 H        -3.113462        -1.652771        -0.865479
 H        -1.960153        -1.359846         1.232129
 H        -0.657675        -2.257089         0.339931
 H        -1.930239         1.173389         0.922591
 H        -0.374916         1.943854         0.347104
