19
Iteration:  3011
 C        -3.939655         0.705384        -1.650699
 C        -2.533797         0.230718        -1.490051
 C        -2.209071        -0.852504        -2.394342
 C        -2.233158        -1.145282        -0.891755
 C        -0.889781        -1.370697        -0.240654
 C        -0.205413        -0.104040         0.423794
 O         0.629074        -0.172587         1.306578
 C        -0.809992         1.134382        -0.031599
 O        -1.591520         1.216318        -1.245416
 H        -4.160148         0.915811        -2.716781
 H        -4.591785        -0.113197        -1.195793
 H        -4.063214         1.730077        -1.272383
 H        -2.963376        -1.215976        -3.143981
 H        -1.236830        -0.862656        -2.838216
 H        -3.091612        -1.767187        -0.672060
 H        -0.915863        -2.160778         0.560401
 H        -0.092331        -1.739237        -0.929494
 H        -1.496397         1.454044         0.827844
 H         0.051643         1.919443        -0.124540
