19
Iteration:  1350charge 0 multiplicity 1
 C        -3.954680         0.626734        -1.412425
 C        -2.466796         0.220719        -1.511570
 C        -2.225177        -0.890091        -2.470568
 C        -2.197373        -1.116568        -0.914061
 C        -0.904706        -1.344996        -0.209128
 C        -0.367185        -0.100226         0.489659
 O         0.505060        -0.291054         1.322443
 C        -0.744559         1.289973        -0.159185
 O        -1.464241         1.236915        -1.389425
 H        -4.174912         1.208411        -2.324764
 H        -4.601451        -0.254778        -1.176440
 H        -3.959709         1.318008        -0.496082
 H        -3.136223        -1.173455        -3.014361
 H        -1.232242        -0.890393        -2.939534
 H        -3.128228        -1.608267        -0.506577
 H        -0.767037        -2.065427         0.535872
 H        -0.114238        -1.440461        -0.929452
 H        -1.266117         1.837335         0.652220
 H         0.240390         1.739227        -0.320771
