19
Iteration:  4513charge 0 multiplicity 1
 C        -3.980725         0.626263        -1.906862
 C        -2.563483         0.297308        -1.482628
 C        -1.682448        -0.612468        -2.401145
 C        -2.187655        -1.146267        -1.053566
 C        -1.334316        -1.279746         0.218477
 C        -0.209726        -0.289856         0.390009
 O         0.937495        -0.548716         0.765642
 C        -0.800180         1.150428         0.039883
 O        -1.939311         1.404103        -0.774470
 H        -4.637411        -0.071069        -2.381681
 H        -4.602440         1.221451        -1.154344
 H        -3.837085         1.374754        -2.642354
 H        -2.136644        -0.902462        -3.385257
 H        -0.644196        -0.449447        -2.470191
 H        -3.024031        -1.920881        -1.073215
 H        -1.925135        -0.910752         1.070154
 H        -0.898336        -2.364184         0.178926
 H        -1.049633         1.750667         0.869602
 H         0.077160         1.661919        -0.352707
