19
Iteration:  2248charge 0 multiplicity 1
 C        -3.649011         0.834412        -0.864320
 C        -2.438265         0.097899        -1.446841
 C        -2.389329        -1.032427        -2.560832
 C        -1.929301        -1.307264        -1.107374
 C        -0.530538        -1.319963        -0.384474
 C        -0.416430        -0.076065         0.373289
 O        -0.200466        -0.139152         1.574687
 C        -0.672498         1.335552        -0.376862
 O        -1.494925         1.167688        -1.538364
 H        -4.334946         1.294158        -1.566584
 H        -4.282766         0.200306        -0.237587
 H        -3.258115         1.565372        -0.204883
 H        -3.373240        -1.498135        -2.717418
 H        -1.601209        -0.853393        -3.401456
 H        -2.600132        -1.888945        -0.394962
 H        -0.289326        -2.267404         0.126552
 H         0.271062        -1.176243        -1.270410
 H        -1.273899         1.933772         0.269636
 H         0.337768         1.876340        -0.616066
