19
Iteration:   944
 C        -3.680011         0.934191        -1.115359
 C        -2.418546         0.135271        -1.379181
 C        -2.527976        -1.191468        -2.209102
 C        -1.877671        -1.209626        -0.907674
 C        -0.317243        -1.108517        -0.812712
 C        -0.387900        -0.123855         0.345760
 O        -0.232263        -0.237297         1.571913
 C        -0.866598         1.267007        -0.198579
 O        -1.370808         1.099576        -1.567955
 H        -3.839064         1.519292        -2.011190
 H        -4.572961         0.371461        -0.901664
 H        -3.624720         1.653315        -0.333492
 H        -3.649957        -1.470440        -2.363124
 H        -1.958521        -1.408337        -3.124176
 H        -2.399346        -1.624159        -0.054617
 H         0.102085        -2.110479        -0.389125
 H         0.132978        -0.738276        -1.772003
 H        -1.558132         1.754953         0.531887
 H         0.100037         1.841587        -0.161156
