19
Iteration:   457charge 0 multiplicity 1
 C        -3.954059         0.536318        -1.919807
 C        -2.525660         0.111882        -1.442288
 C        -1.544859        -0.670227        -2.179802
 C        -2.155933        -1.211309        -0.866610
 C        -1.270472        -1.293758         0.426155
 C        -0.350190        -0.167517         0.354242
 O         0.888948        -0.168989         0.329402
 C        -0.835656         1.186573        -0.019209
 O        -2.042173         1.285841        -0.830226
 H        -3.820900         1.263652        -2.708698
 H        -4.585348        -0.301079        -2.278917
 H        -4.462427         0.978648        -1.003900
 H        -1.799716        -1.304388        -3.052748
 H        -0.486316        -0.287059        -2.125539
 H        -2.939095        -1.927413        -1.013301
 H        -1.937495        -1.237933         1.244142
 H        -0.801137        -2.365282         0.425663
 H        -1.025330         1.791361         0.906323
 H         0.133139         1.652264        -0.460623
