19
Iteration:  2853charge 0 multiplicity 1
 C        -3.691202         0.641396        -0.696362
 C        -2.453473         0.189002        -1.341744
 C        -2.401721        -0.940593        -2.384019
 C        -1.932773        -1.202254        -0.908798
 C        -0.332492        -1.256403        -0.643864
 C        -0.358363        -0.068352         0.333382
 O        -0.768206        -0.160064         1.463719
 C        -0.319105         1.232001        -0.527495
 O        -1.393059         1.166483        -1.541389
 H        -4.162884         1.376370        -1.390164
 H        -4.414738        -0.172843        -0.691902
 H        -3.556422         1.172863         0.281062
 H        -3.440725        -1.388789        -2.501610
 H        -1.595360        -0.958375        -3.112649
 H        -2.640825        -1.634232        -0.242791
 H         0.015765        -2.069516        -0.139085
 H         0.131255        -1.137131        -1.633371
 H        -0.277619         2.242682        -0.005427
 H         0.541814         1.359299        -1.133310
