19
Iteration:  1497
 C        -3.766536         0.744422        -0.807225
 C        -2.450257         0.108188        -1.251702
 C        -2.442982        -0.811768        -2.410385
 C        -1.862093        -1.239519        -1.048378
 C        -0.433436        -1.455710        -0.461366
 C        -0.295537        -0.098387         0.276097
 O        -0.516161        -0.042473         1.469147
 C        -0.430248         1.174433        -0.499096
 O        -1.456664         1.211430        -1.499737
 H        -3.905273         1.585708        -1.526892
 H        -4.481421        -0.074868        -0.987888
 H        -3.682866         1.107881         0.218318
 H        -3.290112        -1.396397        -2.760381
 H        -1.736779        -0.540790        -3.154558
 H        -2.705825        -1.846710        -0.655480
 H        -0.426886        -2.359006         0.199867
 H         0.188190        -1.671541        -1.295649
 H        -0.549800         2.031467         0.191109
 H         0.487264         1.437699        -1.149923
