19
Iteration:  4853charge 0 multiplicity 1
 C        -3.932457         0.682334        -1.711339
 C        -2.528207         0.246116        -1.474665
 C        -1.665063        -0.483424        -2.435850
 C        -2.123557        -1.203304        -1.115770
 C        -1.420642        -1.323791         0.212871
 C        -0.288569        -0.260543         0.322963
 O         0.704363        -0.357392         0.952937
 C        -0.569391         1.015140        -0.322186
 O        -1.917637         1.293650        -0.664442
 H        -4.362892         0.054029        -2.538829
 H        -4.583964         0.444417        -0.865659
 H        -4.036434         1.789650        -1.860146
 H        -2.122664        -0.925994        -3.354905
 H        -0.649373        -0.137908        -2.720480
 H        -3.023436        -1.749478        -1.393305
 H        -2.030446        -1.024520         1.065035
 H        -1.078289        -2.344718         0.282461
 H        -0.262191         1.751335         0.425307
 H         0.080057         1.120949        -1.189885
