19
Iteration:  2037
 C        -3.924691         0.816420        -1.511633
 C        -2.506315         0.213178        -1.481625
 C        -2.266772        -0.915264        -2.479190
 C        -2.170429        -1.308398        -1.013691
 C        -0.915025        -1.453387        -0.209042
 C        -0.386034        -0.070805         0.561975
 O         0.661964        -0.142030         1.182192
 C        -0.899666         1.287937         0.036910
 O        -1.426515         1.175535        -1.323034
 H        -4.048623         1.355157        -2.429175
 H        -4.632710         0.003482        -1.464773
 H        -4.090206         1.503007        -0.679880
 H        -3.165074        -1.248424        -2.938413
 H        -1.330002        -0.950516        -3.049453
 H        -3.044022        -1.906498        -0.653741
 H        -0.878531        -2.118981         0.719630
 H         0.089679        -1.677017        -0.643708
 H        -1.633450         1.802110         0.649406
 H        -0.012265         1.897357         0.058450
