19
Iteration:  1388charge 0 multiplicity 1
 C        -3.725883         0.891015        -1.016930
 C        -2.508809         0.132435        -1.523709
 C        -2.381116        -0.920274        -2.525741
 C        -2.102335        -1.242577        -1.016989
 C        -0.628962        -1.363124        -0.446967
 C        -0.340252        -0.061051         0.439033
 O         0.172097        -0.069836         1.526904
 C        -0.897397         1.197607        -0.173450
 O        -1.314399         1.021964        -1.532039
 H        -3.928382         1.771192        -1.639717
 H        -4.662268         0.352479        -1.068619
 H        -3.698185         1.232384        -0.015328
 H        -3.273237        -1.282296        -2.991997
 H        -1.537898        -0.911648        -3.227443
 H        -2.905643        -1.756874        -0.547369
 H        -0.548285        -2.399728         0.030647
 H        -0.036950        -1.443160        -1.380571
 H        -1.782903         1.561029         0.407743
 H        -0.144793         2.061196        -0.145785
