19
Iteration:  3110
 C        -3.753774         0.802420        -1.722644
 C        -2.417099         0.173675        -1.522381
 C        -1.718747        -0.924389        -2.329432
 C        -2.264249        -1.241689        -0.875780
 C        -1.258640        -1.399386         0.237675
 C        -0.429066        -0.103799         0.374298
 O         0.771585        -0.136039         0.258037
 C        -1.210712         1.213020         0.449042
 O        -1.513379         1.190134        -1.029665
 H        -3.525926         1.863185        -1.819821
 H        -4.065983         0.397749        -2.760709
 H        -4.460322         0.666852        -0.884528
 H        -2.241628        -1.295443        -3.187241
 H        -0.613081        -0.814849        -2.454084
 H        -3.216186        -1.557137        -0.767671
 H        -1.865438        -1.545550         1.174305
 H        -0.590927        -2.313584         0.137759
 H        -2.065325         1.381698         1.170560
 H        -0.659957         2.143661         0.546938
