19
Iteration:  1760charge 0 multiplicity 1
 C        -3.945150         0.539869        -1.710213
 C        -2.432910         0.289924        -1.572111
 C        -1.782159        -0.808691        -2.362314
 C        -2.184457        -1.039309        -0.928800
 C        -1.355341        -1.308662         0.325828
 C        -0.305827        -0.204679         0.390250
 O         0.890715        -0.378426         0.632229
 C        -0.912897         1.235849         0.082205
 O        -1.711538         1.346326        -1.088658
 H        -4.207103         1.382741        -2.376913
 H        -4.355452        -0.309661        -2.231228
 H        -4.349338         0.808606        -0.724215
 H        -2.420814        -1.353894        -3.112530
 H        -0.731870        -0.699617        -2.635191
 H        -3.114348        -1.571900        -0.879484
 H        -2.028823        -1.193088         1.207232
 H        -1.011717        -2.314979         0.361347
 H        -1.414218         1.440363         1.083782
 H        -0.007986         1.908313         0.058219
