19
Iteration:  2640
 C        -3.909808         0.730215        -1.600226
 C        -2.479533         0.249237        -1.539254
 C        -1.853210        -0.856782        -2.473933
 C        -2.162749        -1.141753        -0.949599
 C        -1.137916        -1.465777         0.177166
 C        -0.296939        -0.214967         0.429264
 O         0.873224        -0.183223         0.786416
 C        -1.054582         1.073731         0.093679
 O        -1.711761         1.390414        -1.152864
 H        -4.079092         1.276179        -2.548923
 H        -4.573108        -0.115689        -1.658346
 H        -4.195083         1.470659        -0.831920
 H        -2.352035        -1.367822        -3.242675
 H        -0.876538        -0.555425        -2.559090
 H        -3.085691        -1.653545        -0.932886
 H        -1.728074        -1.774740         1.111225
 H        -0.500176        -2.179271        -0.246606
 H        -1.857417         1.195995         0.910347
 H        -0.399316         1.939250         0.367212
