19
Iteration:  2762charge 0 multiplicity 1
 C        -3.830947         0.724907        -1.031406
 C        -2.505671         0.199535        -1.526482
 C        -2.352872        -0.926246        -2.527814
 C        -2.052146        -1.191271        -1.029233
 C        -0.676595        -1.277959        -0.381069
 C        -0.462046        -0.080857         0.499527
 O         0.239557        -0.149772         1.475661
 C        -0.819951         1.278735        -0.260815
 O        -1.323713         1.043060        -1.533068
 H        -4.376937         1.200188        -1.853006
 H        -4.544084        -0.091159        -0.745861
 H        -3.666329         1.408146        -0.185737
 H        -3.295309        -1.273816        -2.952300
 H        -1.501719        -0.835147        -3.255470
 H        -2.860644        -1.613158        -0.379231
 H        -0.666973        -2.242662         0.225573
 H         0.198401        -1.179064        -0.976016
 H        -1.466781         1.837180         0.488885
 H         0.114863         1.802094        -0.204420
