19
Iteration:  4189
 C        -3.933034         0.677114        -1.586610
 C        -2.486248         0.277057        -1.503489
 C        -1.637107        -0.586592        -2.493514
 C        -2.235417        -1.205648        -1.210769
 C        -1.256409        -1.386293        -0.030081
 C        -0.216858        -0.224522         0.333441
 O         0.614565        -0.324949         1.211713
 C        -0.590375         1.144345        -0.466811
 O        -1.964587         1.282420        -0.621676
 H        -4.682472        -0.096014        -1.836370
 H        -4.198127         0.960090        -0.539398
 H        -4.132050         1.638816        -2.154039
 H        -2.039812        -0.977750        -3.440139
 H        -0.546731        -0.448271        -2.509745
 H        -3.138966        -1.937096        -1.125818
 H        -1.951601        -1.411505         0.883847
 H        -0.866198        -2.397634         0.008524
 H        -0.311630         1.875771         0.397602
 H        -0.086156         1.161364        -1.451448
