19
Iteration:  4158charge 0 multiplicity 1
 C        -4.006290         0.650745        -1.644918
 C        -2.509514         0.244678        -1.383527
 C        -1.676697        -0.416144        -2.432218
 C        -2.133354        -1.208125        -1.197849
 C        -1.275583        -1.343667         0.009286
 C        -0.364621        -0.200245         0.293005
 O         0.527668        -0.299144         1.152389
 C        -0.462436         1.007756        -0.540071
 O        -1.858583         1.221692        -0.572376
 H        -4.485032        -0.273907        -1.874961
 H        -4.360909         0.948192        -0.723221
 H        -4.056024         1.471946        -2.427642
 H        -2.150774        -0.869085        -3.302786
 H        -0.617073        -0.185312        -2.559464
 H        -2.962075        -2.078306        -1.170752
 H        -1.960081        -1.348059         0.910578
 H        -0.619670        -2.188126         0.062718
 H        -0.169037         1.748253         0.310044
 H        -0.005940         1.225389        -1.565739
