19
Iteration:  4491
 C        -3.904695         0.645819        -1.919747
 C        -2.578112         0.275404        -1.452529
 C        -1.544646        -0.512305        -2.170857
 C        -2.169242        -1.116037        -0.998274
 C        -1.417851        -1.416963         0.290942
 C        -0.350741        -0.276798         0.258098
 O         0.793569        -0.480508         0.611473
 C        -0.694432         1.165296        -0.051418
 O        -1.941495         1.329620        -0.781275
 H        -4.498022        -0.234704        -2.193449
 H        -4.436354         1.181759        -1.043274
 H        -3.818468         1.325375        -2.703310
 H        -1.825219        -0.823621        -3.189010
 H        -0.567873        -0.092093        -2.077126
 H        -2.951262        -1.887424        -1.277363
 H        -1.930713        -1.143820         1.191765
 H        -0.742725        -2.356053         0.160879
 H        -0.913050         1.527962         0.923126
 H         0.147685         1.768737        -0.389914
