19
Iteration:   729
 C        -3.959010         0.735398        -1.446716
 C        -2.556144         0.130173        -1.477218
 C        -2.223585        -0.946186        -2.318657
 C        -2.171238        -1.109512        -0.807611
 C        -0.684306        -1.302534        -0.470774
 C        -0.298167        -0.089368         0.408020
 O         0.562027        -0.050277         1.301722
 C        -1.118006         1.192793        -0.006844
 O        -1.361895         1.056476        -1.398294
 H        -4.324685         0.970662        -2.437663
 H        -4.621334        -0.042394        -1.007267
 H        -3.995971         1.603121        -0.671029
 H        -2.937457        -1.504386        -2.916081
 H        -1.158407        -0.951098        -2.673751
 H        -3.004704        -1.725994        -0.449178
 H        -0.300196        -2.213942         0.074538
 H        -0.072001        -1.037891        -1.348615
 H        -2.096795         1.481309         0.457229
 H        -0.369835         2.024150         0.117531
