19
Iteration:  3758charge 0 multiplicity 1
 C        -3.881696         0.800061        -1.373331
 C        -2.441240         0.205242        -1.529753
 C        -2.157520        -0.739493        -2.617748
 C        -2.220679        -1.151910        -1.009246
 C        -0.921616        -1.355422        -0.400532
 C        -0.294424        -0.205444         0.491870
 O         0.519208        -0.324838         1.386087
 C        -0.959664         1.226420         0.081866
 O        -1.448619         1.192075        -1.285460
 H        -4.544351         0.212388        -2.031384
 H        -4.193451         0.599013        -0.304599
 H        -3.892000         1.881006        -1.602959
 H        -2.992123        -0.946058        -3.310740
 H        -1.183053        -0.711392        -2.996700
 H        -3.083598        -1.782151        -0.725565
 H        -0.697690        -2.356394        -0.004181
 H        -0.060405        -1.400052        -1.122814
 H        -1.748994         1.414644         0.718347
 H        -0.021674         1.888219         0.221086
