19
Iteration:  1750
 C        -3.910043         0.526118        -1.679259
 C        -2.452915         0.230191        -1.517043
 C        -1.812307        -0.768315        -2.499491
 C        -2.201113        -1.120962        -1.003647
 C        -1.404116        -1.229154         0.331252
 C        -0.287892        -0.199069         0.487932
 O         0.904722        -0.357258         0.658859
 C        -0.876954         1.164455         0.107124
 O        -1.679394         1.360149        -1.107533
 H        -4.187156         1.297719        -2.435241
 H        -4.425488        -0.463870        -1.748732
 H        -4.227734         0.747738        -0.577193
 H        -2.579236        -0.985557        -3.317649
 H        -0.769092        -0.599694        -2.799400
 H        -3.106883        -1.646671        -0.830916
 H        -2.148164        -0.948035         1.082308
 H        -0.981794        -2.193628         0.537191
 H        -1.596990         1.654390         0.816076
 H        -0.034742         1.883029        -0.122606
