19
Iteration:   148charge 0 multiplicity 1
 C        -3.613530         0.504000        -0.592006
 C        -2.458402         0.029264        -1.454414
 C        -2.550336        -0.998860        -2.466954
 C        -1.981704        -1.338357        -1.078489
 C        -0.617516        -1.266361        -0.464426
 C        -0.412118         0.144687         0.362096
 O        -0.222998         0.369344         1.560255
 C        -0.659916         1.326709        -0.508468
 O        -1.236858         0.832216        -1.714892
 H        -4.564811         0.440673        -1.158688
 H        -3.672596        -0.012566         0.393750
 H        -3.510193         1.533981        -0.330489
 H        -3.541447        -1.382091        -2.841809
 H        -1.860617        -0.949187        -3.309832
 H        -2.699512        -1.954953        -0.345934
 H        -0.530557        -2.074922         0.336497
 H         0.251792        -1.381001        -1.160506
 H        -1.225608         2.078778         0.139322
 H         0.405305         1.702399        -0.667536
