19
Iteration:  3742
 C        -3.885392         0.876750        -1.419158
 C        -2.525794         0.226616        -1.495560
 C        -2.298073        -0.777063        -2.585104
 C        -2.175420        -1.125319        -1.067948
 C        -0.675271        -1.239750        -0.455733
 C        -0.347106        -0.161358         0.558899
 O         0.482949        -0.365929         1.376698
 C        -1.007123         1.126349         0.122262
 O        -1.361447         1.073633        -1.265613
 H        -4.626747         0.362285        -2.037743
 H        -4.268704         1.073833        -0.444610
 H        -3.817560         1.802664        -2.010330
 H        -3.114895        -1.228906        -3.126475
 H        -1.294836        -0.702255        -3.119709
 H        -2.870011        -1.731193        -0.500047
 H        -0.478932        -2.177909         0.101426
 H        -0.016718        -1.155904        -1.341067
 H        -1.909468         1.388265         0.837988
 H        -0.382665         1.951712         0.141890
