19
Iteration:  2161charge 0 multiplicity 1
 C        -3.676323         0.871296        -0.901454
 C        -2.464201         0.150808        -1.430576
 C        -2.350962        -0.979070        -2.333067
 C        -1.904338        -1.179770        -0.914147
 C        -0.388380        -1.269950        -0.493317
 C        -0.405747        -0.152852         0.367623
 O        -0.287628        -0.193283         1.574314
 C        -0.709850         1.163968        -0.439475
 O        -1.514830         1.168079        -1.655417
 H        -3.640343         1.854609        -1.316754
 H        -4.582159         0.452372        -1.324593
 H        -3.712139         0.885768         0.155692
 H        -3.192606        -1.649963        -2.647891
 H        -1.702744        -0.938875        -3.216793
 H        -2.625740        -1.696270        -0.293836
 H        -0.035840        -2.245476        -0.159566
 H         0.051746        -0.984959        -1.498232
 H        -1.090299         1.932964         0.223969
 H         0.328503         1.567337        -0.728531
