19
Iteration:  4285
 C        -3.814977         0.742124        -1.736930
 C        -2.450102         0.206139        -1.426193
 C        -1.745669        -0.696726        -2.427364
 C        -2.254509        -1.275945        -1.034538
 C        -1.248339        -1.365456         0.001598
 C        -0.326701        -0.207352         0.296041
 O         0.716001        -0.400883         0.890801
 C        -0.806045         1.237409        -0.027376
 O        -1.847503         1.362949        -0.830454
 H        -4.543166        -0.030043        -2.127342
 H        -4.441104         1.156899        -0.810430
 H        -3.804279         1.604959        -2.457305
 H        -2.334331        -0.851278        -3.314867
 H        -0.644870        -0.635950        -2.524736
 H        -3.187024        -1.890474        -0.929340
 H        -1.619123        -1.545048         1.043026
 H        -0.544357        -2.266021         0.043186
 H        -0.998206         1.687203         0.992150
 H         0.160381         1.723174        -0.459640
