19
Iteration:  3044
 C        -3.856610         0.847966        -1.629389
 C        -2.505527         0.208428        -1.535941
 C        -2.000599        -0.943904        -2.394727
 C        -2.223787        -1.218580        -0.968834
 C        -1.035255        -1.402599        -0.010546
 C        -0.346276        -0.056301         0.459353
 O         0.796479        -0.173496         0.887920
 C        -1.092195         1.192749         0.177049
 O        -1.536454         1.188633        -1.228419
 H        -4.018749         1.069622        -2.697474
 H        -4.677012         0.086297        -1.329414
 H        -3.885703         1.684568        -0.904122
 H        -2.740196        -1.422108        -3.076703
 H        -1.002990        -0.655665        -2.648109
 H        -3.056296        -1.855881        -0.784077
 H        -1.390557        -1.932685         0.909126
 H        -0.247225        -2.020607        -0.499472
 H        -1.909516         1.327626         0.978594
 H        -0.310527         1.977983         0.486306
