19
Iteration:  2392charge 0 multiplicity 1
 C        -3.978174         0.667432        -1.472515
 C        -2.542777         0.252870        -1.606079
 C        -2.109233        -0.924045        -2.510315
 C        -2.230826        -1.151964        -1.097915
 C        -1.095461        -1.242135        -0.104920
 C        -0.203721        -0.055424         0.460623
 O         0.816393        -0.155155         1.110638
 C        -0.970890         1.186214         0.169870
 O        -1.443194         1.112156        -1.239671
 H        -4.245673         1.418035        -2.201493
 H        -4.535399        -0.147294        -1.878373
 H        -4.284536         0.924362        -0.472761
 H        -2.844830        -1.388138        -3.123628
 H        -1.144557        -0.917062        -2.934171
 H        -3.146586        -1.715645        -0.876663
 H        -1.462362        -1.570464         0.855948
 H        -0.332791        -2.030370        -0.217910
 H        -1.873900         1.241560         0.758960
 H        -0.320546         2.113566         0.244987
