19
Iteration:  4250charge 0 multiplicity 1
 C        -4.031802         0.708663        -1.820533
 C        -2.516586         0.296319        -1.498385
 C        -1.805282        -0.706984        -2.382151
 C        -2.310781        -1.139990        -1.002302
 C        -1.107906        -1.426443        -0.062890
 C        -0.239859        -0.315638         0.393880
 O         0.769037        -0.377760         1.074859
 C        -0.722537         1.121303        -0.057146
 O        -1.844355         1.458392        -0.881832
 H        -4.374483        -0.046947        -2.594863
 H        -4.493049         0.555375        -0.787016
 H        -4.078019         1.712785        -2.189863
 H        -2.313623        -1.090434        -3.344771
 H        -0.744858        -0.591495        -2.550299
 H        -3.184735        -1.656678        -0.779844
 H        -1.515693        -1.701943         0.913102
 H        -0.434926        -2.242937        -0.515602
 H        -0.799693         1.807759         0.776178
 H         0.144684         1.552802        -0.687494
