19
Iteration:  2892
 C        -3.536084         0.786917        -0.592357
 C        -2.337548         0.127122        -1.463438
 C        -2.487781        -0.933525        -2.422507
 C        -1.873966        -1.306137        -1.051195
 C        -0.424730        -1.287659        -0.611440
 C        -0.458216        -0.017844         0.369396
 O        -0.594216        -0.088376         1.567570
 C        -0.664834         1.299916        -0.436399
 O        -1.313553         1.033661        -1.677242
 H        -3.518376         1.881981        -0.661909
 H        -4.510948         0.303282        -0.852983
 H        -3.365239         0.662001         0.484824
 H        -3.380824        -1.419662        -2.837846
 H        -1.861355        -0.746326        -3.342900
 H        -2.472116        -1.937540        -0.348040
 H        -0.012298        -2.165807         0.045743
 H         0.123518        -1.316097        -1.577442
 H        -1.291693         1.896412         0.215869
 H         0.369458         1.720781        -0.721381
