19
Iteration:  4983charge 0 multiplicity 1
 C        -3.926501         0.721121        -2.022434
 C        -2.527167         0.207825        -1.399995
 C        -1.482870        -0.471598        -2.204611
 C        -2.128343        -1.209003        -1.054781
 C        -1.483377        -1.232399         0.341231
 C        -0.308307        -0.209754         0.353783
 O         0.866680        -0.570563         0.488383
 C        -0.742782         1.163341        -0.090076
 O        -2.052357         1.245030        -0.584799
 H        -4.736939        -0.038755        -2.019215
 H        -4.149091         1.527512        -1.341200
 H        -3.726779         0.949599        -3.026316
 H        -1.776105        -0.859767        -3.147105
 H        -0.367824        -0.196992        -2.167899
 H        -2.817295        -2.050190        -1.308255
 H        -2.298543        -0.932056         1.102896
 H        -1.070393        -2.223118         0.560048
 H        -0.713114         1.819447         0.797418
 H        -0.000065         1.598468        -0.818527
