19
Iteration:  3267charge 0 multiplicity 1
 C        -4.055958         0.542314        -1.880201
 C        -2.558264         0.255322        -1.404175
 C        -1.696281        -0.483550        -2.424914
 C        -2.147919        -1.200575        -1.117196
 C        -1.305141        -1.222639         0.198783
 C        -0.181371        -0.135542         0.281466
 O         0.784543        -0.545960         0.925082
 C        -0.580552         1.249427        -0.386032
 O        -2.003145         1.204507        -0.448736
 H        -3.866495         0.853933        -2.956980
 H        -4.611101        -0.343662        -1.813904
 H        -4.647188         1.431662        -1.525267
 H        -1.978978        -0.808504        -3.409951
 H        -0.693699         0.000720        -2.543529
 H        -2.921519        -2.092309        -1.050895
 H        -1.872476        -0.808211         1.112096
 H        -0.929594        -2.241418         0.518589
 H        -0.382381         2.064251         0.364363
 H        -0.110202         1.370642        -1.344712
