19
Iteration:  2934
 C        -3.641839         0.856841        -0.874039
 C        -2.477605         0.144589        -1.476084
 C        -2.417743        -0.947917        -2.486778
 C        -2.004285        -1.328432        -1.108653
 C        -0.544556        -1.283571        -0.549825
 C        -0.438949        -0.059958         0.456803
 O        -0.103479        -0.062524         1.611707
 C        -0.830433         1.277982        -0.272803
 O        -1.294400         1.013433        -1.604478
 H        -3.858101         1.922771        -1.127016
 H        -4.580067         0.284675        -1.071774
 H        -3.550813         0.584548         0.195398
 H        -3.299746        -1.290907        -2.971614
 H        -1.777383        -0.894722        -3.377872
 H        -2.763577        -1.883749        -0.470654
 H        -0.299723        -2.275700         0.018025
 H         0.247107        -1.083373        -1.289340
 H        -1.548952         1.863261         0.322366
 H         0.236706         1.673260        -0.446597
