19
Iteration:  2207
 C        -3.747411         0.646298        -0.805291
 C        -2.424748         0.173729        -1.416079
 C        -2.462698        -0.876604        -2.475155
 C        -2.039493        -1.156468        -0.944320
 C        -0.504867        -1.284935        -0.586399
 C        -0.309639        -0.038939         0.379704
 O        -0.401139        -0.056618         1.605220
 C        -0.536343         1.248879        -0.444266
 O        -1.270401         0.968019        -1.578265
 H        -4.367761         1.183840        -1.558288
 H        -4.276576        -0.283494        -0.730860
 H        -3.651513         1.067160         0.195433
 H        -3.376322        -1.174522        -2.919077
 H        -1.758696        -0.769199        -3.332242
 H        -2.728777        -1.876234        -0.405696
 H         0.076598        -2.140203        -0.267667
 H         0.062145        -0.837054        -1.443604
 H        -1.010400         1.765424         0.431707
 H         0.245851         1.966740        -0.735140
