19
Iteration:   232charge 0 multiplicity 1
 C        -3.944755         0.510303        -1.402040
 C        -2.488113         0.185863        -1.354077
 C        -2.509126        -1.158372        -2.181208
 C        -2.097565        -1.136235        -0.717196
 C        -0.589866        -1.193622        -0.607140
 C        -0.299293         0.021109         0.406430
 O         0.251533        -0.012734         1.471662
 C        -0.706358         1.359282        -0.239418
 O        -1.357937         1.089535        -1.537154
 H        -4.392026        -0.418768        -1.649008
 H        -4.392461         0.880092        -0.455621
 H        -4.268060         1.222259        -2.241550
 H        -3.544635        -1.478425        -2.570751
 H        -1.795065        -1.452558        -3.028747
 H        -2.709244        -1.632688         0.081191
 H        -0.086360        -2.110710        -0.197170
 H        -0.264338        -1.086511        -1.604110
 H        -1.295869         1.956910         0.490548
 H         0.259336         1.870624        -0.472093
