19
Iteration:  3280charge 0 multiplicity 1
 C        -4.002471         0.538068        -1.847779
 C        -2.596528         0.253930        -1.460852
 C        -1.733298        -0.522110        -2.429548
 C        -2.150175        -1.155070        -1.100103
 C        -1.276729        -1.220049         0.124578
 C        -0.201064        -0.168108         0.308498
 O         0.748352        -0.484942         0.986358
 C        -0.513828         1.213278        -0.286065
 O        -2.013900         1.247043        -0.542458
 H        -4.269404         0.726449        -2.874879
 H        -4.568850        -0.338388        -1.593767
 H        -4.372529         1.240627        -1.114607
 H        -2.353005        -0.837605        -3.220794
 H        -0.686523        -0.293585        -2.648869
 H        -2.950277        -1.940146        -1.287011
 H        -1.879422        -1.373385         1.033048
 H        -0.630501        -2.049269         0.023746
 H        -0.228963         2.086955         0.297617
 H         0.058625         1.334095        -1.238193
