19
Iteration:  3571charge 0 multiplicity 1
 C        -3.928678         0.547031        -0.976510
 C        -2.521614         0.233210        -1.375575
 C        -2.202629        -0.732829        -2.565239
 C        -2.006340        -1.145379        -1.134388
 C        -0.655858        -1.367618        -0.526625
 C        -0.348540        -0.188712         0.389303
 O        -0.234909        -0.268714         1.574113
 C        -0.310951         1.213709        -0.338349
 O        -1.495963         1.345955        -1.293196
 H        -4.690169         0.407363        -1.783477
 H        -4.338825        -0.062474        -0.212699
 H        -4.123403         1.604721        -0.626058
 H        -3.085989        -1.005029        -3.084535
 H        -1.387900        -0.689006        -3.229402
 H        -2.814429        -1.822048        -0.846415
 H        -0.435794        -2.297508        -0.019657
 H         0.127571        -1.354757        -1.238976
 H        -0.184103         2.197660         0.231539
 H         0.486555         1.108872        -1.179836
