19
Iteration:   426
 C        -3.789647         0.432695        -1.934992
 C        -2.463014         0.150426        -1.407854
 C        -1.785205        -0.953813        -2.237091
 C        -2.339662        -1.188584        -0.865971
 C        -1.161352        -1.214764         0.134467
 C        -0.182354        -0.023562         0.217163
 O         0.939512        -0.273484         0.556210
 C        -0.872011         1.340871         0.087068
 O        -2.071700         1.396913        -0.793698
 H        -3.884743         1.417708        -2.371836
 H        -4.134009        -0.181592        -2.808862
 H        -4.629565         0.210875        -1.167030
 H        -2.432064        -1.278898        -3.097674
 H        -0.673386        -1.226008        -2.347336
 H        -3.248385        -1.673150        -0.455764
 H        -1.559625        -1.258440         1.166413
 H        -0.522948        -2.204797         0.092647
 H        -1.259466         1.494655         1.102836
 H        -0.233704         2.246637        -0.072488
