19
Iteration:  2718
 C        -3.814348         0.976348        -1.416548
 C        -2.511341         0.172142        -1.552922
 C        -2.310064        -1.045259        -2.431537
 C        -2.138395        -1.223643        -0.952323
 C        -0.725261        -1.362106        -0.346354
 C        -0.305375        -0.115866         0.427925
 O         0.564565        -0.015729         1.255295
 C        -1.060937         1.090750         0.081324
 O        -1.476685         1.093273        -1.341168
 H        -3.634061         1.943710        -1.874953
 H        -4.711444         0.653151        -1.974681
 H        -4.015231         1.023995        -0.338349
 H        -3.049192        -1.507886        -3.064391
 H        -1.318503        -1.093585        -2.864552
 H        -2.948689        -1.664567        -0.367320
 H        -0.593311        -2.144014         0.474746
 H        -0.061671        -1.513435        -1.152379
 H        -2.001520         1.172202         0.808052
 H        -0.490632         2.012318         0.171407
