19
Iteration:   779
 C        -3.966485         0.636848        -1.261985
 C        -2.484864         0.074259        -1.440220
 C        -2.360893        -1.035987        -2.443387
 C        -1.983690        -1.235799        -0.978493
 C        -0.529675        -1.308316        -0.437156
 C        -0.305732        -0.056064         0.414507
 O         0.167354        -0.087176         1.524121
 C        -0.546067         1.315811        -0.294573
 O        -1.689470         1.280061        -1.306628
 H        -4.133711         1.389219        -2.050903
 H        -4.656297        -0.180154        -1.486239
 H        -4.197530         0.980748        -0.295689
 H        -3.326164        -1.330612        -2.863518
 H        -1.533572        -0.825938        -3.190893
 H        -2.693358        -1.840524        -0.407486
 H        -0.448236        -2.143971         0.258095
 H         0.061948        -1.434160        -1.370503
 H        -0.739039         2.194562         0.300367
 H         0.322338         1.452731        -0.901698
