19
Iteration:  2888charge 0 multiplicity 1
 C        -3.550112         0.754672        -0.575138
 C        -2.353059         0.153006        -1.434465
 C        -2.468423        -0.958475        -2.438995
 C        -1.881320        -1.316530        -1.018832
 C        -0.411194        -1.277333        -0.627097
 C        -0.489691        -0.039311         0.322393
 O        -0.623088        -0.079879         1.560615
 C        -0.606099         1.312491        -0.433352
 O        -1.303833         1.058426        -1.662002
 H        -3.545677         1.857806        -0.836550
 H        -4.529937         0.352694        -0.787379
 H        -3.395666         0.627644         0.517729
 H        -3.324244        -1.398230        -2.862982
 H        -1.864337        -0.907232        -3.311210
 H        -2.524291        -1.898588        -0.344219
 H         0.018139        -2.080731        -0.007651
 H         0.022759        -1.238313        -1.628611
 H        -1.165214         1.942691         0.270624
 H         0.415430         1.573155        -0.766560
