19
Iteration:  3864charge 0 multiplicity 1
 C        -3.886035         0.694980        -1.528583
 C        -2.472980         0.266676        -1.449106
 C        -2.008192        -0.649650        -2.469551
 C        -2.226654        -1.139674        -1.102663
 C        -1.018703        -1.474935        -0.148612
 C        -0.296487        -0.244008         0.376400
 O         0.674149        -0.389856         1.136928
 C        -0.945144         1.145852         0.116462
 O        -1.572788         1.382786        -1.210895
 H        -4.726743        -0.040063        -1.530272
 H        -4.116017         1.400185        -0.776032
 H        -3.963718         1.309903        -2.525218
 H        -2.713310        -0.755516        -3.298209
 H        -1.008963        -0.494414        -2.742903
 H        -3.096379        -1.786959        -0.824551
 H        -1.375397        -1.892455         0.802868
 H        -0.141461        -1.918810        -0.650108
 H        -1.808805         1.295865         0.848035
 H        -0.224807         1.833745         0.506321
