19
Iteration:  3968charge 0 multiplicity 1
 C        -3.764952         0.990205        -1.481983
 C        -2.484522         0.299245        -1.617702
 C        -1.918470        -0.825630        -2.502563
 C        -2.233252        -1.184333        -1.061796
 C        -1.072600        -1.595743        -0.104436
 C        -0.410849        -0.216760         0.503012
 O         0.789492        -0.128495         0.870948
 C        -1.261332         1.029960         0.245223
 O        -1.436555         1.201704        -1.137742
 H        -4.651602         0.439652        -1.692672
 H        -3.922920         1.235523        -0.402380
 H        -3.845130         1.908039        -1.864210
 H        -2.628179        -1.278973        -3.278316
 H        -0.913398        -0.605965        -2.736432
 H        -3.172083        -1.352384        -0.712944
 H        -1.315694        -2.153512         0.821203
 H        -0.309726        -2.065860        -0.723698
 H        -2.295487         0.883460         0.770654
 H        -0.637837         1.886188         0.480177
