19
Iteration:  2381
 C        -4.039775         0.699366        -1.525631
 C        -2.518373         0.255443        -1.524613
 C        -2.149442        -0.848050        -2.508747
 C        -2.215771        -1.179161        -0.972428
 C        -0.967969        -1.304672        -0.067787
 C        -0.254321        -0.070049         0.462821
 O         0.761156        -0.162539         1.147037
 C        -0.998596         1.164551         0.074982
 O        -1.389115         1.132197        -1.337190
 H        -4.252011         1.665896        -1.970858
 H        -4.506736        -0.121818        -2.008926
 H        -4.490669         0.687739        -0.545073
 H        -2.858544        -1.302098        -3.176811
 H        -1.168329        -0.772131        -2.894417
 H        -3.020676        -1.826472        -0.580309
 H        -1.254882        -1.890311         0.794016
 H        -0.300478        -1.843591        -0.721194
 H        -1.817384         1.246353         0.783816
 H        -0.346200         2.068989         0.255063
