19
Iteration:  3739charge 0 multiplicity 1
 C        -3.895264         0.904458        -1.435655
 C        -2.514164         0.232390        -1.514294
 C        -2.315368        -0.791232        -2.528679
 C        -2.146741        -1.111977        -1.096403
 C        -0.662341        -1.240077        -0.476608
 C        -0.356829        -0.161435         0.548053
 O         0.470498        -0.362677         1.380304
 C        -1.010958         1.128966         0.133773
 O        -1.365819         1.048973        -1.259479
 H        -4.665300         0.357629        -2.015532
 H        -4.257638         1.167367        -0.353975
 H        -3.804302         1.770446        -2.064964
 H        -3.215923        -1.230740        -3.053198
 H        -1.347490        -0.722690        -3.076064
 H        -2.817796        -1.811663        -0.562529
 H        -0.373096        -2.163587         0.030604
 H         0.094229        -1.165394        -1.256706
 H        -1.967169         1.292326         0.830600
 H        -0.308135         2.013235         0.195831
