19
Iteration:  1401charge 0 multiplicity 1
 C        -3.653901         0.988540        -0.975995
 C        -2.445171         0.159677        -1.393238
 C        -2.448377        -0.853851        -2.482388
 C        -1.999515        -1.284382        -1.003226
 C        -0.549802        -1.328825        -0.479284
 C        -0.330777        -0.117931         0.362688
 O         0.010592        -0.078773         1.547457
 C        -0.976701         1.158974        -0.276849
 O        -1.356956         0.947944        -1.609136
 H        -3.576945         1.900253        -1.515950
 H        -4.492773         0.405409        -1.301519
 H        -3.662678         1.182077         0.095173
 H        -3.334775        -1.327187        -2.821736
 H        -1.669403        -0.651579        -3.215521
 H        -2.639039        -1.968215        -0.401962
 H        -0.275798        -2.156047         0.278367
 H         0.325442        -1.273218        -1.242905
 H        -1.802396         1.353790         0.446938
 H        -0.301991         1.985459        -0.197910
