19
Iteration:  2798
 C        -3.819076         0.704684        -0.909794
 C        -2.519599         0.080101        -1.418395
 C        -2.339593        -0.896368        -2.493970
 C        -2.007976        -1.245349        -1.029069
 C        -0.549815        -1.317259        -0.501376
 C        -0.360126        -0.109036         0.385504
 O        -0.210842        -0.095700         1.578197
 C        -0.474180         1.218098        -0.444847
 O        -1.461820         1.194114        -1.461118
 H        -4.512833         1.037104        -1.705510
 H        -4.257310         0.009863        -0.169931
 H        -3.599704         1.647643        -0.378098
 H        -3.216045        -1.093920        -3.202656
 H        -1.340394        -0.762192        -3.024088
 H        -2.678372        -1.781762        -0.342704
 H        -0.283225        -2.136715         0.068509
 H         0.131601        -1.285769        -1.351457
 H        -0.812767         1.969859         0.375110
 H         0.339602         1.631631        -1.033560
