19
Iteration:   967charge 0 multiplicity 1
 C        -3.769580         1.011789        -1.267984
 C        -2.585074         0.102409        -1.433657
 C        -2.393863        -1.075920        -2.295666
 C        -1.988572        -1.195924        -0.816083
 C        -0.426533        -1.075711        -0.651840
 C        -0.320809        -0.090720         0.419305
 O         0.055495        -0.290350         1.546654
 C        -0.919586         1.262867        -0.216391
 O        -1.368915         0.972576        -1.519912
 H        -3.876950         1.733015        -2.014895
 H        -4.634518         0.405437        -1.199829
 H        -3.771482         1.522584        -0.326635
 H        -3.346813        -1.664088        -2.568639
 H        -1.669885        -1.101990        -3.115335
 H        -2.612083        -1.806544        -0.201426
 H        -0.091343        -2.142258        -0.423709
 H        -0.090273        -0.701174        -1.596732
 H        -1.669174         1.509629         0.592836
 H        -0.193477         2.082694        -0.259103
