19
Iteration:   504charge 0 multiplicity 1
 C        -3.965365         0.246241        -1.999312
 C        -2.544261         0.205000        -1.447395
 C        -1.445821        -0.529633        -2.187415
 C        -2.122765        -1.124440        -1.005954
 C        -1.436202        -0.985914         0.396881
 C        -0.218266        -0.081546         0.267642
 O         0.893461        -0.514328         0.365702
 C        -0.751179         1.280235        -0.154117
 O        -2.135445         1.208854        -0.444013
 H        -3.965836         0.381361        -3.112512
 H        -4.443622        -0.750376        -1.734311
 H        -4.606253         1.043432        -1.505987
 H        -1.741992        -0.898391        -3.207976
 H        -0.435254        -0.179566        -2.029109
 H        -2.811367        -2.043861        -1.008604
 H        -2.244446        -0.533505         1.086691
 H        -1.151927        -1.987759         0.802687
 H        -0.596022         2.011968         0.668702
 H        -0.141793         1.750890        -0.986118
