19
Iteration:  4874
 C        -4.018020         0.757800        -1.829557
 C        -2.611042         0.258884        -1.492100
 C        -1.650326        -0.535340        -2.351329
 C        -2.218348        -1.152742        -1.034125
 C        -1.334254        -1.379625         0.192324
 C        -0.255986        -0.303437         0.424201
 O         0.845497        -0.371134         0.871484
 C        -0.584419         1.077326        -0.177933
 O        -1.944501         1.270424        -0.805391
 H        -4.489691         0.369387        -2.758044
 H        -4.773784         0.611415        -1.052295
 H        -3.942079         1.821125        -1.836544
 H        -1.887913        -0.925012        -3.359743
 H        -0.568269        -0.349629        -2.228825
 H        -2.951625        -1.937956        -1.297985
 H        -2.151054        -1.460591         0.949156
 H        -0.945566        -2.387594         0.208429
 H        -0.645934         1.821924         0.593614
 H         0.194414         1.401678        -0.881919
