19
Iteration:  3670
 C        -3.880030         0.801849        -1.142802
 C        -2.477782         0.346278        -1.524138
 C        -2.310905        -0.858535        -2.498142
 C        -2.096850        -1.181409        -1.105582
 C        -0.568685        -1.256039        -0.568684
 C        -0.411047        -0.169880         0.456944
 O         0.165443        -0.414003         1.502487
 C        -0.911237         1.229196         0.023568
 O        -1.264891         1.143751        -1.420070
 H        -4.543867         0.028463        -0.688832
 H        -3.852181         1.617664        -0.390206
 H        -4.529967         1.106706        -2.026318
 H        -3.061663        -1.187433        -3.136696
 H        -1.402110        -0.831365        -3.067351
 H        -2.876939        -1.787949        -0.647167
 H        -0.355320        -2.232523        -0.116540
 H         0.120431        -1.085438        -1.425054
 H        -1.786446         1.733736         0.585432
 H        -0.055333         2.046769         0.065663
