19
Iteration:  3473charge 0 multiplicity 1
 C        -3.682393         0.765478        -0.998633
 C        -2.392365         0.217650        -1.535375
 C        -2.524171        -0.835179        -2.539640
 C        -1.992261        -1.215681        -1.138597
 C        -0.638377        -1.289346        -0.577339
 C        -0.423894        -0.187184         0.478832
 O         0.083435        -0.144053         1.570406
 C        -0.910444         1.224298        -0.081475
 O        -1.240819         1.069265        -1.515233
 H        -3.747482         1.888400        -1.152668
 H        -4.630912         0.533812        -1.465530
 H        -3.821741         0.495323         0.120060
 H        -3.498681        -1.155125        -2.901074
 H        -1.810685        -0.835967        -3.290162
 H        -2.711099        -1.819300        -0.510030
 H        -0.367969        -2.350398        -0.360354
 H         0.117275        -0.937688        -1.287597
 H        -1.855864         1.242298         0.550978
 H        -0.200406         2.002264         0.279638
