19
Iteration:  4617charge 0 multiplicity 1
 C        -3.938749         0.613190        -1.762402
 C        -2.538495         0.312309        -1.407047
 C        -1.859055        -0.508469        -2.507037
 C        -2.263734        -1.148659        -1.217503
 C        -1.257611        -1.396860         0.011794
 C        -0.182761        -0.198275         0.358778
 O         0.665412        -0.374972         1.227401
 C        -0.463135         1.045898        -0.349128
 O        -1.915973         1.304813        -0.611385
 H        -4.405540        -0.309942        -2.175530
 H        -4.496982         0.822812        -0.869296
 H        -3.875538         1.514972        -2.459555
 H        -2.536401        -0.627674        -3.440127
 H        -0.781645        -0.281118        -2.658882
 H        -2.966325        -1.941938        -1.141375
 H        -1.935428        -1.393536         0.894029
 H        -0.563915        -2.230937        -0.079315
 H        -0.142454         2.035332         0.094364
 H        -0.063638         0.936294        -1.360004
