19
Iteration:  2111
 C        -3.658933         0.692823        -1.042654
 C        -2.373296         0.132725        -1.464402
 C        -2.476435        -0.891405        -2.442990
 C        -2.064126        -1.264997        -1.012197
 C        -0.695401        -1.216529        -0.472544
 C        -0.508051        -0.061517         0.426559
 O         0.093491        -0.128566         1.519425
 C        -0.756866         1.277645        -0.247968
 O        -1.331481         1.054469        -1.540471
 H        -3.928673         1.474023        -1.860825
 H        -4.459221        -0.068089        -1.092052
 H        -3.575614         1.149272         0.009734
 H        -3.441565        -1.094215        -2.805239
 H        -1.731155        -0.870793        -3.251009
 H        -2.743536        -1.897186        -0.377161
 H        -0.555067        -2.119796         0.116282
 H         0.144678        -1.186101        -1.145664
 H        -1.480938         1.997593         0.277629
 H         0.156030         1.802492        -0.299510
