19
Iteration:  1840
 C        -3.758677         0.771867        -2.135745
 C        -2.472743         0.226883        -1.487440
 C        -1.931784        -1.031613        -2.308664
 C        -2.365731        -1.166929        -0.850237
 C        -1.220684        -1.264814         0.289247
 C        -0.162820        -0.111540         0.320052
 O         1.048625        -0.324720         0.419492
 C        -1.004189         1.267992         0.351291
 O        -1.862719         1.314850        -0.805804
 H        -3.629329         1.666434        -2.723283
 H        -4.390330         0.063156        -2.604100
 H        -4.516641         1.003985        -1.356203
 H        -2.536692        -1.517240        -3.050827
 H        -0.907658        -1.397841        -2.526193
 H        -3.273142        -1.771791        -0.711717
 H        -1.756356        -1.081001         1.169568
 H        -0.843554        -2.318744         0.337545
 H        -1.615167         1.178485         1.308859
 H        -0.304789         2.067014         0.346598
