19
Iteration:  2502charge 0 multiplicity 1
 C        -3.712391         0.811332        -2.072100
 C        -2.472930         0.179307        -1.439823
 C        -1.988041        -0.945659        -2.280519
 C        -2.230697        -1.224024        -0.818041
 C        -1.137660        -1.430929         0.283523
 C        -0.301936        -0.125162         0.358530
 O         0.964408        -0.163142         0.358438
 C        -1.109041         1.156093         0.342512
 O        -1.779172         1.329192        -0.887537
 H        -3.531794         1.756576        -2.568458
 H        -4.070147         0.136331        -2.866348
 H        -4.491291         0.897833        -1.311406
 H        -2.726082        -1.251079        -3.019427
 H        -0.952643        -0.940930        -2.579440
 H        -3.124275        -1.787171        -0.653742
 H        -1.639941        -1.367568         1.235557
 H        -0.491523        -2.310364         0.173612
 H        -1.847025         1.189933         1.222936
 H        -0.458517         2.004353         0.492947
