19
Iteration:  2401charge 0 multiplicity 1
 C        -3.923472         0.651875        -1.493885
 C        -2.497832         0.183785        -1.603649
 C        -2.039849        -0.937023        -2.576766
 C        -2.258129        -1.126184        -1.091813
 C        -1.095172        -1.283585        -0.055807
 C        -0.234277        -0.090633         0.426011
 O         0.832867        -0.155028         1.051286
 C        -1.002668         1.245576         0.177724
 O        -1.496043         1.133302        -1.179081
 H        -4.150139         1.491478        -2.197505
 H        -4.664999        -0.139925        -1.440940
 H        -4.043060         1.125699        -0.504847
 H        -2.890995        -1.334534        -3.150061
 H        -1.093730        -0.827587        -3.039890
 H        -3.166612        -1.724899        -0.804476
 H        -1.772730        -1.356067         0.810726
 H        -0.546809        -2.184263        -0.036092
 H        -1.770731         1.334555         1.009612
 H        -0.463500         2.268572         0.167185
