19
Iteration:   812
 C        -3.951156         0.467477        -0.899780
 C        -2.530665         0.170364        -1.396687
 C        -2.104650        -0.818625        -2.462583
 C        -2.005041        -1.164000        -0.922623
 C        -0.668729        -1.391687        -0.450881
 C        -0.339388        -0.067863         0.343598
 O        -0.117418         0.039866         1.523205
 C        -0.436556         1.183517        -0.491157
 O        -1.587762         1.187197        -1.478981
 H        -4.328945         1.467632        -1.085430
 H        -4.575283        -0.251302        -1.424839
 H        -4.037095         0.279613         0.130682
 H        -2.829701        -1.133635        -3.230788
 H        -1.175425        -0.304107        -2.918194
 H        -2.881370        -1.765921        -0.678287
 H        -0.418155        -2.243814         0.198026
 H         0.075617        -1.481890        -1.284211
 H        -0.480112         2.090355         0.096947
 H         0.529917         1.200298        -0.982797
