19
Iteration:  1371
 C        -3.835204         0.766717        -1.168680
 C        -2.464112         0.255004        -1.555859
 C        -2.307591        -1.036522        -2.542739
 C        -2.180794        -1.181505        -1.050881
 C        -0.837763        -1.280136        -0.416460
 C        -0.397926        -0.119878         0.482964
 O         0.352397        -0.118609         1.445853
 C        -0.792564         1.239856        -0.084293
 O        -1.352975         1.103125        -1.431681
 H        -4.208034         1.545937        -1.852621
 H        -4.462126        -0.139488        -0.990271
 H        -3.680421         1.217337        -0.094700
 H        -3.234451        -1.460238        -2.943777
 H        -1.361910        -1.053135        -3.088461
 H        -2.958860        -1.712227        -0.409570
 H        -0.804177        -2.175403         0.186448
 H         0.061434        -1.271520        -1.078258
 H        -1.459590         1.838948         0.561768
 H         0.094955         1.767014        -0.327081
