19
Iteration:  2631
 C        -3.941986         0.745455        -1.604453
 C        -2.469262         0.202651        -1.558575
 C        -1.733865        -0.772076        -2.408494
 C        -2.148764        -1.172161        -0.933313
 C        -1.179169        -1.435889         0.198281
 C        -0.333570        -0.245775         0.416380
 O         0.853916        -0.237416         0.719300
 C        -1.097887         1.155827         0.080055
 O        -1.725484         1.369679        -1.155260
 H        -4.163194         1.290482        -2.518660
 H        -4.702199        -0.008648        -1.343073
 H        -4.015863         1.464468        -0.747020
 H        -2.175949        -1.242601        -3.264404
 H        -0.779975        -0.467583        -2.706380
 H        -2.922254        -1.904757        -0.974399
 H        -1.513371        -1.684756         1.251160
 H        -0.580964        -2.292190         0.072556
 H        -1.830011         1.140498         0.918171
 H        -0.322058         1.889231         0.154799
