19
Iteration:   260charge 0 multiplicity 1
 C        -3.959806         0.725822        -1.379390
 C        -2.606767         0.084645        -1.460932
 C        -2.271204        -1.159994        -2.330966
 C        -2.089955        -1.180423        -0.800361
 C        -0.643551        -1.207250        -0.316912
 C        -0.241353         0.028203         0.401485
 O         0.462625        -0.037886         1.443621
 C        -0.803786         1.225393        -0.274362
 O        -1.621101         1.134883        -1.495587
 H        -4.665962         0.102123        -0.777852
 H        -3.796591         1.701983        -0.923586
 H        -4.402275         0.855018        -2.371146
 H        -3.027486        -1.728203        -2.861950
 H        -1.433177        -1.128744        -2.960519
 H        -2.761424        -1.742199        -0.219655
 H        -0.389373        -1.990229         0.373635
 H        -0.063809        -1.465746        -1.256435
 H        -1.358108         1.754841         0.528570
 H         0.013772         1.927933        -0.597217
