19
Iteration:  4218
 C        -3.995755         0.666216        -1.812550
 C        -2.617471         0.247125        -1.365700
 C        -1.849396        -0.498969        -2.489369
 C        -2.159717        -1.186748        -1.063166
 C        -1.129180        -1.388583         0.069118
 C        -0.303102        -0.224045         0.413215
 O         0.699243        -0.391489         1.130469
 C        -0.592413         1.125803        -0.233164
 O        -1.823553         1.305199        -0.836558
 H        -4.535993         0.052994        -2.592607
 H        -4.741951         0.747438        -0.909665
 H        -4.112646         1.643477        -2.210930
 H        -2.423042        -1.158027        -3.228141
 H        -1.111752         0.081695        -3.001027
 H        -2.942652        -1.864182        -1.094461
 H        -1.683274        -1.848927         0.875514
 H        -0.522741        -2.303760        -0.246694
 H        -0.317861         1.825883         0.546416
 H         0.329928         1.345561        -0.879550
