19
Iteration:  4422charge 0 multiplicity 1
 C        -3.844043         0.747099        -2.213213
 C        -2.604005         0.243171        -1.409206
 C        -1.648502        -0.562318        -2.132639
 C        -2.261878        -1.214129        -0.975664
 C        -1.376246        -1.136533         0.343556
 C        -0.207941        -0.285174         0.175680
 O         0.922926        -0.502611         0.590410
 C        -0.691464         1.152978        -0.127267
 O        -2.111166         1.156598        -0.474706
 H        -4.021995         0.122584        -3.121362
 H        -4.703864         0.836045        -1.587365
 H        -3.421120         1.726268        -2.407505
 H        -1.823498        -0.916176        -3.170325
 H        -0.681954         0.067657        -1.894883
 H        -2.734212        -2.113815        -1.215049
 H        -2.060531        -0.574317         1.048310
 H        -1.054430        -2.156653         0.571392
 H        -0.727332         1.588230         0.911032
 H         0.027354         1.630605        -0.748992
