19
Iteration:  1770
 C        -3.947605         0.606554        -1.789946
 C        -2.511207         0.270443        -1.535474
 C        -1.726950        -0.860501        -2.247660
 C        -2.250534        -1.063124        -0.835674
 C        -1.287828        -1.334976         0.280221
 C        -0.304070        -0.202680         0.268810
 O         0.833432        -0.383775         0.608463
 C        -0.882914         1.201193         0.117494
 O        -1.688519         1.428416        -1.072624
 H        -3.982044         1.575369        -2.293355
 H        -4.507859        -0.127739        -2.324731
 H        -4.592167         0.611895        -0.968099
 H        -2.056449        -1.587699        -3.008942
 H        -0.656499        -0.702140        -2.392333
 H        -3.074484        -1.768239        -0.883978
 H        -1.853104        -1.342101         1.266535
 H        -0.729380        -2.227556         0.141009
 H        -1.568503         1.432016         1.004313
 H        -0.168253         2.056321        -0.059003
