19
Iteration:  4111
 C        -4.015122         0.692352        -1.766278
 C        -2.572204         0.308856        -1.508618
 C        -1.904536        -0.663319        -2.454327
 C        -2.199613        -1.082324        -1.131289
 C        -1.079417        -1.364987         0.000712
 C        -0.283700        -0.238215         0.477154
 O         0.688326        -0.363980         1.161807
 C        -0.540167         1.063935        -0.219991
 O        -1.893397         1.322531        -0.782566
 H        -4.521385        -0.041555        -2.455075
 H        -4.585686         0.757365        -0.762159
 H        -3.966557         1.681658        -2.196974
 H        -2.530083        -0.855898        -3.334747
 H        -0.842814        -0.469037        -2.674999
 H        -2.969266        -1.872667        -0.993653
 H        -1.512905        -2.092640         0.743686
 H        -0.286815        -1.917062        -0.574766
 H        -0.465525         1.882750         0.603886
 H         0.278071         1.029406        -1.008707
