19
Iteration:   936
 C        -3.647386         0.884149        -1.067071
 C        -2.416570         0.089941        -1.373408
 C        -2.561792        -1.156443        -2.250559
 C        -1.865566        -1.231959        -0.901937
 C        -0.304106        -1.175799        -0.768396
 C        -0.411160        -0.073606         0.346035
 O        -0.308096        -0.249677         1.549147
 C        -0.791812         1.321493        -0.245888
 O        -1.333498         1.189841        -1.568978
 H        -4.028821         1.350896        -1.932017
 H        -4.441321         0.187452        -0.838551
 H        -3.581157         1.567796        -0.197442
 H        -3.622704        -1.506048        -2.195149
 H        -2.079843        -1.409323        -3.175127
 H        -2.382482        -1.703527        -0.082351
 H        -0.062822        -2.199313        -0.484785
 H         0.158153        -0.890327        -1.642346
 H        -1.513706         1.679405         0.556342
 H        -0.025524         2.014556        -0.395777
