19
Iteration:  3093charge 0 multiplicity 1
 C        -3.823927         0.806777        -1.678814
 C        -2.342236         0.225000        -1.511538
 C        -1.800511        -0.963409        -2.389518
 C        -2.270310        -1.165399        -0.973647
 C        -1.342774        -1.359103         0.231062
 C        -0.405631        -0.161775         0.476089
 O         0.819866         0.010031         0.353666
 C        -1.208815         1.109118         0.343101
 O        -1.411527         1.134683        -1.041390
 H        -3.739619         1.855749        -2.008563
 H        -4.531775         0.334755        -2.298640
 H        -4.131525         0.633498        -0.635004
 H        -2.491853        -1.379013        -3.150032
 H        -0.709879        -1.014194        -2.511644
 H        -3.137798        -1.963063        -0.961588
 H        -1.907526        -1.446800         1.140856
 H        -0.644546        -2.191054         0.087911
 H        -2.173400         1.102601         0.852670
 H        -0.528875         1.897016         0.666634
