19
Iteration:  3275charge 0 multiplicity 1
 C        -3.999427         0.538665        -1.865047
 C        -2.604286         0.280315        -1.432797
 C        -1.713192        -0.515800        -2.445780
 C        -2.142940        -1.198656        -1.115928
 C        -1.313520        -1.214301         0.161622
 C        -0.182355        -0.133082         0.288527
 O         0.753029        -0.522868         0.971189
 C        -0.525135         1.236703        -0.312620
 O        -2.023235         1.222051        -0.508517
 H        -4.251359         0.762319        -2.951484
 H        -4.576027        -0.410304        -1.644104
 H        -4.521412         1.342493        -1.241024
 H        -2.301153        -0.856941        -3.360130
 H        -0.698619        -0.115740        -2.614625
 H        -2.921544        -1.959511        -1.158234
 H        -1.763315        -1.201468         1.209162
 H        -0.619708        -2.175151         0.172158
 H        -0.136662         2.132549         0.253253
 H         0.063460         1.393862        -1.220190
