19
Iteration:  1531
 C        -3.784978         0.755318        -0.775332
 C        -2.556871         0.121807        -1.420172
 C        -2.293096        -0.880365        -2.590761
 C        -2.024585        -1.333171        -1.163033
 C        -0.641473        -1.273343        -0.434269
 C        -0.413883        -0.004129         0.413576
 O        -0.212546        -0.043775         1.622258
 C        -0.426836         1.143453        -0.474651
 O        -1.465129         1.138327        -1.485097
 H        -4.451278         1.326826        -1.409089
 H        -4.350425         0.051922        -0.151788
 H        -3.323800         1.446072        -0.034885
 H        -2.996820        -1.467276        -3.187651
 H        -1.416462        -0.698245        -3.157049
 H        -2.660500        -2.152215        -0.695522
 H        -0.268838        -2.240058        -0.025909
 H        -0.100265        -1.046926        -1.356262
 H        -0.372048         2.053143         0.195383
 H         0.640868         0.895389        -0.870828
