19
Iteration:  2295charge 0 multiplicity 1
 C        -3.960033         0.699897        -1.142857
 C        -2.472548         0.217195        -1.460945
 C        -2.388306        -0.876531        -2.387422
 C        -2.007391        -1.170255        -0.953211
 C        -0.583599        -1.254553        -0.388745
 C        -0.482539        -0.095017         0.499765
 O         0.207846        -0.155283         1.484860
 C        -0.818168         1.216570        -0.231325
 O        -1.259533         1.034338        -1.613958
 H        -4.093609         1.606006        -1.743666
 H        -4.672683         0.078545        -1.639459
 H        -4.201548         0.876696        -0.079109
 H        -3.341245        -1.258765        -2.728458
 H        -1.577831        -0.905704        -3.023240
 H        -2.833460        -1.675815        -0.364627
 H        -0.267719        -2.261021        -0.045907
 H         0.098065        -1.010740        -1.343868
 H        -1.578159         1.744617         0.381374
 H         0.034529         1.920057        -0.407127
