19
Iteration:  1646
 C        -3.833723         0.903207        -1.605795
 C        -2.533979         0.181618        -1.495913
 C        -2.367103        -1.018117        -2.379595
 C        -2.213741        -1.152793        -0.856151
 C        -0.775312        -1.337069        -0.349331
 C        -0.255143        -0.043869         0.462173
 O         0.655557        -0.206594         1.261975
 C        -1.047667         1.218320         0.092925
 O        -1.398096         1.078314        -1.311787
 H        -3.787238         1.787203        -2.220596
 H        -4.501224         0.224586        -2.137867
 H        -4.293602         1.107327        -0.681264
 H        -3.304621        -1.139725        -2.941823
 H        -1.537282        -1.135821        -3.052307
 H        -2.973351        -1.761265        -0.350204
 H        -0.581130        -2.179867         0.349311
 H        -0.052773        -1.412927        -1.213289
 H        -2.033169         1.423465         0.637615
 H        -0.533850         2.150597         0.155548
