19
Iteration:  3831
 C        -4.051303         0.671969        -1.355670
 C        -2.588559         0.278476        -1.554834
 C        -1.926594        -0.639716        -2.675892
 C        -2.118252        -1.104855        -1.241402
 C        -1.098580        -1.366318        -0.138306
 C        -0.341471        -0.207452         0.469982
 O         0.634197        -0.335512         1.245903
 C        -0.743242         1.193859         0.101765
 O        -1.559295         1.186210        -1.156215
 H        -4.802436        -0.120341        -1.455296
 H        -3.957339         1.147570        -0.435328
 H        -4.191531         1.477649        -2.164707
 H        -2.682973        -0.869800        -3.453975
 H        -0.995819        -0.387194        -3.061466
 H        -2.910347        -1.888670        -1.223453
 H        -1.553460        -1.867439         0.735810
 H        -0.454360        -2.270185        -0.271717
 H        -1.275007         1.753147         0.976762
 H         0.232174         1.532801        -0.185848
