19
Iteration:  3502charge 0 multiplicity 1
 C        -3.842949         0.824583        -0.961623
 C        -2.491839         0.210879        -1.458368
 C        -2.243461        -0.858520        -2.485040
 C        -1.984934        -1.195437        -0.969823
 C        -0.544171        -1.274533        -0.556118
 C        -0.379524        -0.118324         0.317989
 O        -0.109752        -0.369527         1.497890
 C        -0.725246         1.314156        -0.194872
 O        -1.425984         1.129235        -1.482388
 H        -4.045753         1.781156        -1.467325
 H        -4.711193         0.182761        -1.075348
 H        -3.780132         1.115087         0.086874
 H        -3.032040        -1.336716        -3.124160
 H        -1.303435        -0.736309        -3.136975
 H        -2.690597        -1.926038        -0.507715
 H        -0.350530        -2.214773        -0.033634
 H         0.129999        -1.336366        -1.418391
 H        -1.245364         1.775803         0.614439
 H         0.315346         1.731615        -0.330151
