19
Iteration:  4948
 C        -3.855919         0.743753        -2.081928
 C        -2.562327         0.286807        -1.416856
 C        -1.595465        -0.633814        -2.237813
 C        -2.277130        -1.143744        -0.976711
 C        -1.333474        -1.378681         0.203883
 C        -0.245514        -0.315195         0.327424
 O         0.919188        -0.407327         0.621813
 C        -0.793222         1.143258        -0.016365
 O        -2.021800         1.322289        -0.621153
 H        -4.674608         0.011571        -2.203325
 H        -4.306170         1.602804        -1.439111
 H        -3.684080         1.258056        -2.939366
 H        -2.062007        -1.143850        -3.052714
 H        -0.568654        -0.555703        -2.364756
 H        -3.182763        -1.748717        -0.971902
 H        -2.005867        -1.473502         1.099011
 H        -0.815239        -2.334144         0.074510
 H        -0.940147         1.665563         0.927421
 H         0.023992         1.677955        -0.591265
