19
Iteration:  1132charge 0 multiplicity 1
 C        -3.720291         0.672476        -2.175925
 C        -2.485371         0.217733        -1.400791
 C        -1.734437        -0.885725        -2.021312
 C        -2.424610        -1.126330        -0.650799
 C        -1.164157        -1.403241         0.285818
 C        -0.243292        -0.117790         0.304306
 O         0.966879        -0.332410         0.199510
 C        -1.176511         1.213326         0.303523
 O        -1.803278         1.438791        -0.972281
 H        -3.495858         1.417835        -2.860239
 H        -4.249594        -0.124420        -2.624343
 H        -4.499046         1.171178        -1.550676
 H        -2.233720        -1.248682        -2.948074
 H        -0.718676        -1.044368        -1.909849
 H        -3.310574        -1.786002        -0.454248
 H        -1.476069        -1.539022         1.450767
 H        -0.477653        -2.182407        -0.010686
 H        -1.861965         0.760061         0.999766
 H        -0.714632         2.069540         0.675577
