19
Iteration:   888charge 0 multiplicity 1
 C        -3.734511         0.584048        -0.601017
 C        -2.497283         0.161739        -1.375551
 C        -2.266560        -0.834894        -2.453128
 C        -1.923487        -1.236502        -1.082422
 C        -0.488832        -1.271151        -0.538624
 C        -0.449580        -0.104083         0.358848
 O        -0.473423        -0.004923         1.577362
 C        -0.510556         1.251764        -0.503269
 O        -1.385830         1.059653        -1.637273
 H        -4.375473         1.300012        -1.144244
 H        -4.426080        -0.211030        -0.319212
 H        -3.382159         1.078404         0.260499
 H        -2.988821        -1.472570        -3.005076
 H        -1.471440        -0.437212        -3.169680
 H        -2.784675        -1.835584        -0.723114
 H        -0.109572        -2.236241        -0.086685
 H         0.098443        -1.017633        -1.532596
 H        -0.776487         2.101977         0.137175
 H         0.570723         1.276176        -0.955236
