19
Iteration:  2158
 C        -3.702655         0.886193        -0.920598
 C        -2.493332         0.146141        -1.411592
 C        -2.341950        -0.979676        -2.330273
 C        -1.903736        -1.183452        -0.928993
 C        -0.400987        -1.282817        -0.533256
 C        -0.374967        -0.143618         0.403166
 O        -0.278190        -0.185550         1.608181
 C        -0.715293         1.171215        -0.449556
 O        -1.502109         1.160209        -1.682151
 H        -3.653214         1.884666        -1.297528
 H        -4.662848         0.465310        -1.284594
 H        -3.642023         0.830775         0.171971
 H        -3.197057        -1.627835        -2.680453
 H        -1.653856        -0.892962        -3.152575
 H        -2.589511        -1.685435        -0.286059
 H        -0.043201        -2.299818        -0.202129
 H         0.077495        -1.066176        -1.513150
 H        -1.072229         1.833815         0.361942
 H         0.277749         1.623460        -0.719176
