19
Iteration:  1963
 C        -3.839744         0.856241        -1.768303
 C        -2.562011         0.202927        -1.515499
 C        -1.986061        -0.856114        -2.437897
 C        -2.188787        -1.151572        -0.900782
 C        -1.141168        -1.479213         0.185361
 C        -0.298174        -0.178331         0.446657
 O         0.869556        -0.107462         0.720921
 C        -1.084130         1.175066         0.166947
 O        -1.583122         1.143012        -1.109537
 H        -3.745943         1.857539        -2.157406
 H        -4.511142         0.317503        -2.462901
 H        -4.328461         0.955490        -0.791381
 H        -2.733112        -1.314092        -3.080708
 H        -0.935459        -0.745317        -2.743197
 H        -3.108121        -1.756801        -0.731072
 H        -1.538270        -1.836580         1.119085
 H        -0.397039        -2.233765        -0.112897
 H        -1.687657         1.498013         1.058102
 H        -0.198219         1.893281         0.153269
