19
Iteration:  3732
 C        -3.904700         0.965598        -1.458428
 C        -2.515449         0.281174        -1.515835
 C        -2.339401        -0.841693        -2.464768
 C        -2.053236        -1.158091        -1.086714
 C        -0.654865        -1.245846        -0.531524
 C        -0.372436        -0.177396         0.478193
 O         0.453564        -0.346816         1.416472
 C        -1.028339         1.154239         0.159214
 O        -1.377142         1.027420        -1.254513
 H        -4.686337         0.271045        -1.783011
 H        -4.141487         1.312966        -0.504429
 H        -3.790970         1.867352        -2.095356
 H        -3.273541        -1.144430        -2.874499
 H        -1.468043        -0.801735        -3.175821
 H        -2.764230        -1.893594        -0.747602
 H        -0.390047        -2.241572        -0.116378
 H         0.248059        -1.084061        -1.186199
 H        -1.966720         1.181333         0.742007
 H        -0.376838         1.928693         0.358804
