19
Iteration:  4391
 C        -3.790608         0.748546        -2.047163
 C        -2.494220         0.275274        -1.460927
 C        -1.529249        -0.656506        -2.249295
 C        -2.237283        -1.106745        -0.996437
 C        -1.429045        -1.310991         0.388860
 C        -0.321409        -0.270914         0.377830
 O         0.892934        -0.445974         0.516602
 C        -0.770953         1.148567        -0.170414
 O        -2.142736         1.246077        -0.498746
 H        -4.116718         0.232920        -2.975318
 H        -4.572627         0.868243        -1.244134
 H        -3.622356         1.734101        -2.363450
 H        -1.819654        -0.981700        -3.263703
 H        -0.381492        -0.494724        -2.282967
 H        -2.937286        -1.899173        -1.125165
 H        -2.164556        -1.109069         1.173500
 H        -0.768774        -2.264142         0.398526
 H        -0.453082         1.903652         0.510441
 H        -0.118450         1.305424        -1.048591
