19
Iteration:  2209charge 0 multiplicity 1
 C        -3.751344         0.647311        -0.812912
 C        -2.430544         0.173590        -1.406643
 C        -2.456555        -0.857321        -2.477646
 C        -2.022835        -1.142565        -0.951937
 C        -0.479194        -1.269312        -0.579929
 C        -0.337118        -0.056174         0.378252
 O        -0.389770        -0.051259         1.610674
 C        -0.547326         1.232472        -0.453041
 O        -1.273937         0.951946        -1.580502
 H        -4.411145         1.189914        -1.555753
 H        -4.261427        -0.328804        -0.653867
 H        -3.621432         1.121579         0.219986
 H        -3.350480        -1.146189        -2.960857
 H        -1.766496        -0.769454        -3.281264
 H        -2.714586        -1.808361        -0.398251
 H         0.019374        -2.198631        -0.272749
 H         0.019068        -0.889686        -1.445655
 H        -1.054690         1.818959         0.412345
 H         0.228633         1.892065        -0.736836
