19
Iteration:  4188
 C        -3.929491         0.681050        -1.591302
 C        -2.483164         0.270943        -1.500018
 C        -1.626431        -0.588835        -2.491758
 C        -2.239194        -1.201399        -1.214958
 C        -1.267939        -1.392156        -0.030347
 C        -0.214965        -0.215015         0.331353
 O         0.609013        -0.323457         1.208775
 C        -0.581815         1.143628        -0.471341
 O        -1.967615         1.279920        -0.615283
 H        -4.677746        -0.127625        -1.797220
 H        -4.168979         0.949516        -0.493847
 H        -4.140692         1.629183        -2.140542
 H        -2.054879        -0.980003        -3.451677
 H        -0.558417        -0.423702        -2.502872
 H        -3.131217        -1.896682        -1.138827
 H        -1.951860        -1.401444         0.892124
 H        -0.837769        -2.409478         0.012010
 H        -0.319091         1.870177         0.388569
 H        -0.125244         1.140999        -1.463999
