19
Iteration:  3930charge 0 multiplicity 1
 C        -3.715028         0.973336        -1.657194
 C        -2.405796         0.233449        -1.408843
 C        -2.197053        -0.779378        -2.500605
 C        -2.303779        -1.248277        -1.105636
 C        -0.933956        -1.409628        -0.185415
 C        -0.367936        -0.116487         0.447815
 O         0.802321        -0.175008         0.884036
 C        -1.310128         1.109091         0.386141
 O        -1.385209         1.023690        -1.050804
 H        -4.365265         0.430026        -2.415732
 H        -4.205353         1.162173        -0.703871
 H        -3.370755         1.988414        -2.238223
 H        -2.922661        -1.030909        -3.195041
 H        -1.218322        -0.555763        -3.033294
 H        -3.374471        -1.760157        -0.908485
 H        -1.053255        -2.135187         0.657656
 H        -0.097305        -1.944208        -0.745142
 H        -2.179072         1.007416         1.065357
 H        -0.879258         2.138678         0.632043
