19
Iteration:  2441
 C        -3.964433         0.770899        -1.595058
 C        -2.521749         0.211650        -1.410354
 C        -1.737947        -0.760074        -2.303731
 C        -2.077653        -1.179000        -0.884142
 C        -1.182529        -1.539373         0.146390
 C        -0.434966        -0.178939         0.396651
 O         0.777422        -0.149751         0.637553
 C        -1.109141         1.181234         0.099073
 O        -1.526034         1.259423        -1.249065
 H        -4.192182         1.199152        -2.604769
 H        -4.775167         0.005836        -1.371013
 H        -4.081266         1.575629        -0.824824
 H        -2.163978        -1.268757        -3.245540
 H        -0.724879        -0.348265        -2.463239
 H        -2.942362        -1.867459        -0.929561
 H        -1.669874        -1.852529         1.137808
 H        -0.637118        -2.521876        -0.074865
 H        -2.006416         1.411934         0.683851
 H        -0.287739         1.871090         0.235846
