19
Iteration:  3038
 C        -3.929784         0.819369        -1.638512
 C        -2.522491         0.218405        -1.514121
 C        -2.040204        -1.003079        -2.414403
 C        -2.224157        -1.179560        -0.969859
 C        -1.010910        -1.419400        -0.061463
 C        -0.333788        -0.088059         0.426913
 O         0.792418        -0.155698         0.976263
 C        -1.030373         1.221084         0.183464
 O        -1.539530         1.190512        -1.203114
 H        -4.056487         1.168812        -2.668141
 H        -4.673163         0.152996        -1.312958
 H        -3.815383         1.767279        -1.103005
 H        -2.655495        -1.318741        -3.234231
 H        -0.960681        -0.770091        -2.638443
 H        -3.116370        -1.844829        -0.865135
 H        -1.269547        -2.003630         0.811114
 H        -0.179586        -1.957105        -0.557735
 H        -1.765799         1.515319         0.911682
 H        -0.258125         1.939837         0.299780
