19
Iteration:  1511
 C        -3.681387         0.769256        -0.805301
 C        -2.462946         0.125063        -1.282485
 C        -2.350151        -0.840148        -2.529832
 C        -1.922298        -1.297084        -1.123313
 C        -0.514406        -1.396531        -0.526974
 C        -0.412054        -0.097305         0.326038
 O        -0.399756        -0.000113         1.559990
 C        -0.412404         1.196463        -0.555739
 O        -1.546046         1.096397        -1.395705
 H        -3.993248         1.422305        -1.543042
 H        -4.564789         0.270014        -0.507423
 H        -3.566451         1.412336         0.069016
 H        -3.314997        -1.283017        -2.811613
 H        -1.666643        -0.431170        -3.261768
 H        -2.530117        -2.078232        -0.560887
 H        -0.498147        -2.159861         0.273132
 H         0.460800        -1.474053        -1.208810
 H        -0.516207         2.101102         0.153048
 H         0.545802         1.194099        -1.094631
