19
Iteration:  4575charge 0 multiplicity 1
 C        -3.936582         0.798700        -1.773379
 C        -2.566092         0.262330        -1.442164
 C        -1.703435        -0.591617        -2.271534
 C        -2.250551        -1.179650        -1.011949
 C        -1.158654        -1.518929         0.018761
 C        -0.295028        -0.291325         0.316164
 O         0.709205        -0.392237         1.009584
 C        -0.720741         1.148837        -0.253741
 O        -1.938519         1.401439        -0.809036
 H        -4.356807         0.128794        -2.568631
 H        -4.596765         0.877301        -0.848019
 H        -3.705809         1.773580        -2.217835
 H        -1.994457        -1.061403        -3.294047
 H        -0.603846        -0.341294        -2.262094
 H        -3.068175        -1.910307        -1.198717
 H        -1.289742        -1.979613         1.001034
 H        -0.553834        -2.315265        -0.337518
 H        -0.550121         1.854399         0.660045
 H         0.134261         1.320182        -0.953299
