19
Iteration:  1529charge 0 multiplicity 1
 C        -3.783263         0.774262        -0.767706
 C        -2.548428         0.097026        -1.417047
 C        -2.298218        -0.871307        -2.571983
 C        -2.008324        -1.344194        -1.168331
 C        -0.626070        -1.268497        -0.439989
 C        -0.422060        -0.001558         0.405694
 O        -0.231101        -0.038177         1.611828
 C        -0.421865         1.138766        -0.476967
 O        -1.472058         1.136013        -1.467141
 H        -4.454566         1.385315        -1.491124
 H        -4.378670         0.021297        -0.154386
 H        -3.251504         1.438876        -0.044732
 H        -3.015879        -1.420105        -3.195259
 H        -1.444516        -0.718607        -3.188726
 H        -2.650574        -2.134981        -0.731174
 H        -0.294585        -2.248376        -0.039404
 H        -0.073356        -1.084802        -1.294591
 H        -0.364390         2.011024         0.157406
 H         0.633877         0.927263        -0.930120
