19
Iteration:    49charge 0 multiplicity 1
 C        -3.962239         0.506828        -1.211167
 C        -2.484804         0.121233        -1.307319
 C        -2.452517        -1.116610        -2.246191
 C        -2.005948        -1.166502        -0.771171
 C        -0.480541        -1.214603        -0.447494
 C        -0.270383         0.067147         0.296950
 O        -0.067871        -0.079376         1.513664
 C        -0.424214         1.327716        -0.532367
 O        -1.561682         1.190218        -1.460245
 H        -4.515843         0.053067        -0.392107
 H        -4.078128         1.589200        -1.337663
 H        -4.517094         0.237037        -2.145745
 H        -3.376021        -1.583685        -2.705813
 H        -1.655156        -1.138913        -3.028850
 H        -2.648855        -1.493038         0.101505
 H        -0.079246        -2.126342         0.050861
 H        -0.034134        -1.156200        -1.474127
 H        -0.450116         2.298401         0.059404
 H         0.563386         1.282465        -1.183403
