19
Iteration:  4868charge 0 multiplicity 1
 C        -4.010771         0.725924        -1.770652
 C        -2.601291         0.267827        -1.450073
 C        -1.620174        -0.542082        -2.395315
 C        -2.247027        -1.127428        -1.111823
 C        -1.387114        -1.365950         0.219781
 C        -0.278848        -0.332044         0.382311
 O         0.833367        -0.331372         0.902061
 C        -0.598477         1.051530        -0.240400
 O        -1.902502         1.252746        -0.773827
 H        -4.351071         0.398330        -2.761196
 H        -4.746649         0.539233        -0.977374
 H        -3.962709         1.914689        -1.987183
 H        -2.022863        -0.891083        -3.323407
 H        -0.572920        -0.101171        -2.270661
 H        -2.777640        -2.065726        -1.277175
 H        -2.145180        -1.471068         1.006864
 H        -0.869906        -2.361239         0.414871
 H        -0.574599         1.826500         0.591793
 H         0.237658         1.363032        -0.903464
