19
Iteration:  2890charge 0 multiplicity 1
 C        -3.544675         0.770777        -0.582867
 C        -2.340302         0.140132        -1.453438
 C        -2.483367        -0.946431        -2.430887
 C        -1.875337        -1.311244        -1.035657
 C        -0.419435        -1.280912        -0.621254
 C        -0.473995        -0.028176         0.348077
 O        -0.608778        -0.083905         1.565241
 C        -0.639176         1.308676        -0.433923
 O        -1.309353         1.045620        -1.669292
 H        -3.523956         1.884278        -0.743037
 H        -4.522839         0.323893        -0.817859
 H        -3.382346         0.649530         0.505724
 H        -3.297463        -1.389628        -2.852260
 H        -1.883575        -0.825940        -3.330845
 H        -2.497848        -1.936376        -0.331483
 H         0.024746        -2.143482         0.044970
 H         0.053106        -1.292604        -1.611107
 H        -1.226460         1.892223         0.234168
 H         0.419348         1.646586        -0.759604
