19
Iteration:  1882
 C        -3.954608         0.704122        -1.859538
 C        -2.481000         0.307981        -1.475966
 C        -1.629852        -0.769317        -2.132696
 C        -2.236050        -1.163583        -0.799632
 C        -1.315380        -1.564592         0.361571
 C        -0.392460        -0.281926         0.350109
 O         0.808168        -0.256947         0.353958
 C        -1.018584         1.237154         0.185982
 O        -1.611091         1.396192        -1.119055
 H        -3.915185         1.207607        -2.811279
 H        -4.474043        -0.214550        -1.923082
 H        -4.440924         1.300078        -1.121239
 H        -1.992791        -1.274434        -3.015265
 H        -0.575874        -0.484056        -2.354604
 H        -3.136677        -1.731806        -0.888474
 H        -1.717959        -1.500673         1.410316
 H        -0.608816        -2.405982         0.262552
 H        -1.666952         1.482071         1.087900
 H        -0.095428         1.792673         0.177991
