19
Iteration:  3518
 C        -3.832755         0.792430        -1.035908
 C        -2.533673         0.172110        -1.340018
 C        -2.237152        -0.856162        -2.434431
 C        -1.969987        -1.222958        -1.088897
 C        -0.545250        -1.308526        -0.601839
 C        -0.390164        -0.177760         0.353014
 O        -0.160463        -0.357220         1.572032
 C        -0.566482         1.221696        -0.318403
 O        -1.489538         1.302840        -1.398399
 H        -4.254027         1.307925        -1.934431
 H        -4.658724         0.056897        -0.793535
 H        -3.729396         1.391877        -0.059371
 H        -3.024616        -1.368479        -2.903940
 H        -1.416197        -0.554631        -3.003577
 H        -2.699989        -1.796151        -0.558530
 H        -0.235641        -2.145125         0.036642
 H         0.154882        -1.188107        -1.459544
 H        -0.968270         2.008645         0.415733
 H         0.303582         1.732355        -0.751707
