19
Iteration:   430charge 0 multiplicity 1
 C        -3.833272         0.453630        -1.922917
 C        -2.431646         0.161129        -1.386705
 C        -1.751759        -0.969599        -2.225527
 C        -2.322014        -1.208479        -0.888902
 C        -1.191820        -1.234940         0.165123
 C        -0.216313        -0.033147         0.209626
 O         0.949574        -0.249823         0.527163
 C        -0.866193         1.355095         0.075886
 O        -2.058611         1.385050        -0.783111
 H        -3.894793         1.415568        -2.471274
 H        -4.165499        -0.224913        -2.727632
 H        -4.570191         0.252293        -1.174402
 H        -2.309251        -1.239673        -3.129559
 H        -0.710033        -1.126249        -2.232610
 H        -3.297208        -1.767856        -0.640943
 H        -1.701551        -1.334259         1.193024
 H        -0.665121        -2.115940         0.084827
 H        -1.227747         1.591752         1.097752
 H        -0.168378         2.142307        -0.067966
