19
Iteration:  2001
 C        -3.901640         0.811938        -1.703144
 C        -2.451152         0.221143        -1.542290
 C        -2.104843        -0.959838        -2.320358
 C        -2.388974        -1.147761        -0.821102
 C        -0.952041        -1.384711        -0.139846
 C        -0.175276        -0.095275         0.355636
 O         0.789848        -0.198290         1.050148
 C        -1.058366         1.197735         0.134450
 O        -1.502615         1.224375        -1.257423
 H        -3.915775         1.820365        -2.213471
 H        -4.643359         0.150193        -2.183424
 H        -4.264378         0.946546        -0.651864
 H        -2.701461        -1.453089        -3.109290
 H        -1.080614        -1.153660        -2.540216
 H        -3.297444        -1.573420        -0.395817
 H        -1.139431        -1.972626         0.756239
 H        -0.407334        -2.030506        -0.818202
 H        -1.929570         1.023484         0.764617
 H        -0.624444         2.143706         0.303612
