19
Iteration:  2198charge 0 multiplicity 1
 C        -3.725356         0.633783        -0.833046
 C        -2.422070         0.162824        -1.422108
 C        -2.480012        -0.965102        -2.450237
 C        -2.048855        -1.293310        -0.966456
 C        -0.571477        -1.259416        -0.622431
 C        -0.228931        -0.014655         0.368341
 O        -0.431690        -0.081867         1.567082
 C        -0.472982         1.345310        -0.351213
 O        -1.272070         1.073699        -1.585917
 H        -4.137918         1.515260        -1.451584
 H        -4.453559        -0.199554        -0.905094
 H        -3.744282         1.003784         0.248880
 H        -3.456781        -1.334563        -2.564485
 H        -1.714700        -0.899489        -3.195925
 H        -2.769782        -1.925119        -0.390747
 H        -0.097722        -2.140650        -0.172020
 H         0.008268        -1.017164        -1.490084
 H        -1.169611         1.921871         0.366796
 H         0.362228         1.923081        -0.658948
