19
Iteration:  1215
 C        -3.764627         0.668770        -1.946372
 C        -2.415974         0.256669        -1.492298
 C        -1.480475        -0.850238        -2.073662
 C        -2.182985        -1.099571        -0.765267
 C        -1.390702        -1.334421         0.561029
 C        -0.446610        -0.193048         0.305263
 O         0.712567        -0.326541        -0.058498
 C        -1.156400         1.077113         0.336763
 O        -1.639739         1.417503        -0.982371
 H        -3.772586         1.430177        -2.784859
 H        -4.303563        -0.210682        -2.380463
 H        -4.328717         0.965533        -1.017379
 H        -1.939070        -1.301617        -2.974483
 H        -0.418960        -0.729174        -2.146387
 H        -3.102411        -1.620415        -0.764731
 H        -1.860391        -1.164541         1.514204
 H        -0.721248        -2.234223         0.615591
 H        -2.018538         1.280488         1.005571
 H        -0.452885         1.861257         0.612471
