19
Iteration:   443
 C        -3.912721         0.485698        -1.916705
 C        -2.517242         0.172268        -1.447689
 C        -1.610586        -0.895897        -2.210128
 C        -2.273973        -1.227322        -0.863318
 C        -1.300175        -1.323685         0.265707
 C        -0.281731        -0.096133         0.257679
 O         0.907243        -0.159590         0.419118
 C        -0.853356         1.310110         0.067526
 O        -1.964284         1.344463        -0.758409
 H        -3.960621         1.458100        -2.467170
 H        -4.230988        -0.365821        -2.496059
 H        -4.536716         0.707672        -1.093626
 H        -1.974712        -1.239635        -3.134434
 H        -0.546546        -0.772630        -2.243252
 H        -3.040251        -1.987864        -0.898982
 H        -1.782431        -1.261307         1.258137
 H        -0.643147        -2.167250         0.243252
 H        -1.103518         1.734938         1.074160
 H        -0.086499         1.874308        -0.495116
