19
Iteration:  2394
 C        -3.959168         0.662512        -1.475953
 C        -2.539702         0.235110        -1.613610
 C        -2.094724        -0.934798        -2.516056
 C        -2.246606        -1.137333        -1.111884
 C        -1.101783        -1.242788        -0.108251
 C        -0.197949        -0.070162         0.457909
 O         0.819067        -0.152384         1.096588
 C        -0.971437         1.208084         0.178361
 O        -1.454988         1.113322        -1.219982
 H        -4.211001         1.409869        -2.190496
 H        -4.601621        -0.177304        -1.775516
 H        -4.245165         0.977007        -0.468048
 H        -2.861873        -1.372870        -3.087638
 H        -1.104901        -0.896329        -2.972289
 H        -3.137650        -1.676785        -0.902896
 H        -1.547390        -1.539191         0.873412
 H        -0.326550        -2.090436        -0.093469
 H        -1.847415         1.263374         0.798699
 H        -0.397759         2.115562         0.220063
