19
Iteration:  2760
 C        -3.828760         0.720230        -1.045519
 C        -2.495179         0.210227        -1.534721
 C        -2.366851        -0.916985        -2.529766
 C        -2.062455        -1.213588        -1.021140
 C        -0.671519        -1.280010        -0.369012
 C        -0.448276        -0.075972         0.500598
 O         0.248940        -0.145102         1.461004
 C        -0.835234         1.270869        -0.244279
 O        -1.326519         1.039461        -1.532059
 H        -4.336536         1.297228        -1.858570
 H        -4.521680        -0.081216        -0.796214
 H        -3.693774         1.429290        -0.211841
 H        -3.279832        -1.264744        -2.928277
 H        -1.543166        -0.804694        -3.170552
 H        -2.850761        -1.584577        -0.386412
 H        -0.672029        -2.262161         0.232624
 H         0.257244        -1.214550        -0.969936
 H        -1.509320         1.765319         0.435225
 H         0.075833         1.859572        -0.127319
