19
Iteration:  1171charge 0 multiplicity 1
 C        -3.626706         0.769488        -2.202727
 C        -2.428027         0.143170        -1.412861
 C        -1.709529        -0.977291        -2.108308
 C        -2.346229        -1.244592        -0.756207
 C        -1.332164        -1.289928         0.439876
 C        -0.401318        -0.136247         0.299966
 O         0.769048        -0.076069        -0.077646
 C        -0.987000         1.169239         0.497111
 O        -1.743056         1.250866        -0.743202
 H        -3.171114         1.195713        -3.175980
 H        -4.198496        -0.105079        -2.621038
 H        -4.118349         1.543765        -1.556718
 H        -2.242646        -1.298152        -3.004637
 H        -0.639628        -1.197896        -2.392036
 H        -3.146051        -1.931793        -0.722521
 H        -1.956719        -1.196943         1.286458
 H        -0.874951        -2.296498         0.612646
 H        -1.701450         1.337791         1.357938
 H        -0.206563         1.984693         0.412050
