19
Iteration:  3486charge 0 multiplicity 1
 C        -3.723589         0.797010        -0.965228
 C        -2.431585         0.212425        -1.449268
 C        -2.367183        -0.850934        -2.527272
 C        -2.075171        -1.163162        -1.085058
 C        -0.572597        -1.291452        -0.637868
 C        -0.355641        -0.091941         0.405185
 O        -0.015166        -0.247741         1.570541
 C        -0.885018         1.187851        -0.150493
 O        -1.298109         1.074564        -1.476274
 H        -3.776449         1.872003        -1.220069
 H        -4.486743         0.129395        -1.458059
 H        -3.819181         0.701752         0.150840
 H        -3.319300        -1.202582        -2.866436
 H        -1.550623        -0.804601        -3.182684
 H        -2.804738        -1.675857        -0.484187
 H        -0.391948        -2.243401        -0.064024
 H         0.139077        -1.227770        -1.532509
 H        -1.702077         1.679471         0.471192
 H        -0.165695         1.969889        -0.239531
