19
Iteration:   452charge 0 multiplicity 1
 C        -3.931284         0.521537        -1.903856
 C        -2.546176         0.130271        -1.463981
 C        -1.540754        -0.747324        -2.188172
 C        -2.217892        -1.211911        -0.887366
 C        -1.277684        -1.333075         0.356121
 C        -0.348649        -0.132660         0.322099
 O         0.890176        -0.144373         0.354108
 C        -0.819219         1.220508         0.027543
 O        -1.996143         1.306384        -0.799177
 H        -3.864147         1.288957        -2.710769
 H        -4.539642        -0.250989        -2.377636
 H        -4.515245         0.775557        -1.046336
 H        -1.911385        -1.331157        -3.010308
 H        -0.519324        -0.470416        -2.198288
 H        -3.004467        -2.008549        -0.833253
 H        -1.845004        -1.232184         1.361407
 H        -0.790408        -2.248599         0.409097
 H        -0.954766         1.823913         0.935538
 H         0.003828         1.731060        -0.406104
