19
Iteration:  3240
 C        -3.925770         0.643260        -1.939656
 C        -2.547001         0.254927        -1.454599
 C        -1.539885        -0.484556        -2.257430
 C        -2.202462        -1.196902        -1.051239
 C        -1.438288        -1.232111         0.291507
 C        -0.212458        -0.247492         0.266152
 O         0.910405        -0.363757         0.700816
 C        -0.666993         1.039181        -0.271167
 O        -2.140982         1.219974        -0.502909
 H        -3.891442         1.172785        -2.893933
 H        -4.624005        -0.299264        -1.924177
 H        -4.362674         1.312905        -1.203274
 H        -1.840379        -0.841020        -3.260489
 H        -0.536119        -0.109942        -2.382963
 H        -2.777084        -2.033466        -1.228546
 H        -1.936241        -0.859930         1.236689
 H        -1.137810        -2.277809         0.408551
 H        -0.498034         1.760568         0.496892
 H        -0.131922         1.186841        -1.242690
