19
Iteration:   402charge 0 multiplicity 1
 C        -3.995598         0.540174        -2.053479
 C        -2.589807         0.166378        -1.434895
 C        -1.933099        -0.947904        -2.223967
 C        -2.250130        -1.099908        -0.753355
 C        -0.991145        -1.287836         0.130359
 C        -0.119327        -0.070047         0.249050
 O         0.986433        -0.189290         0.715383
 C        -0.940739         1.230268         0.115510
 O        -1.930133         1.323305        -0.928776
 H        -4.174463         1.617946        -2.226988
 H        -4.150276         0.132456        -3.056887
 H        -4.885436         0.124677        -1.495112
 H        -2.559027        -1.404796        -2.954687
 H        -0.837541        -0.857378        -2.462490
 H        -2.986341        -1.794825        -0.500980
 H        -1.216799        -1.562698         1.138702
 H        -0.429521        -2.249372        -0.287686
 H        -1.442644         1.420093         1.084993
 H        -0.187598         2.097551        -0.014585
