19
Iteration:  1198
 C        -3.637081         0.691920        -1.998533
 C        -2.378375         0.134797        -1.398478
 C        -1.573722        -0.887650        -2.084482
 C        -2.253760        -1.185074        -0.769220
 C        -1.332310        -1.304469         0.422599
 C        -0.407800        -0.092726         0.372365
 O         0.666184        -0.351651        -0.147926
 C        -1.154486         1.323315         0.431213
 O        -1.691939         1.333788        -0.889055
 H        -3.336612         1.299658        -2.818096
 H        -4.219015        -0.140481        -2.365602
 H        -4.118183         1.366811        -1.258059
 H        -1.891653        -1.415817        -2.978070
 H        -0.489572        -0.797828        -2.112294
 H        -3.131666        -1.919033        -0.837209
 H        -2.074553        -1.379553         1.307433
 H        -0.807790        -2.247618         0.427481
 H        -1.970719         1.190622         1.172450
 H        -0.508221         2.202367         0.483868
