19
Iteration:  2144charge 0 multiplicity 1
 C        -3.845082         0.881929        -0.919323
 C        -2.527563         0.160914        -1.444914
 C        -2.387091        -1.014936        -2.404405
 C        -1.951259        -1.202448        -0.957288
 C        -0.454053        -1.338221        -0.681918
 C        -0.265353        -0.119407         0.436342
 O        -0.216770        -0.119404         1.682044
 C        -0.668044         1.277130        -0.367100
 O        -1.373262         1.036252        -1.641807
 H        -3.820319         1.978709        -1.312790
 H        -4.820807         0.408879        -1.171193
 H        -3.883224         1.064499         0.233990
 H        -3.214632        -1.445706        -2.874547
 H        -1.495184        -0.806959        -3.024134
 H        -2.522130        -1.906613        -0.293451
 H        -0.390797        -2.300985        -0.171446
 H         0.287697        -1.158138        -1.414893
 H        -1.499047         1.873990         0.179427
 H         0.151999         1.906691        -0.569570
