19
Iteration:  1820charge 0 multiplicity 1
 C        -3.781936         0.816707        -2.183340
 C        -2.543774         0.203820        -1.448317
 C        -1.944817        -1.018339        -2.223489
 C        -2.286910        -1.149361        -0.766148
 C        -1.181015        -1.324541         0.272958
 C        -0.248613        -0.203858         0.343487
 O         0.966361        -0.183233         0.451748
 C        -0.874170         1.093438         0.257579
 O        -1.858519         1.348259        -0.822453
 H        -3.414741         1.805719        -2.544267
 H        -4.103238         0.229263        -3.124750
 H        -4.831957         0.949004        -1.654344
 H        -2.715590        -1.344944        -2.907382
 H        -0.971664        -0.991085        -2.711889
 H        -3.254172        -1.708688        -0.545648
 H        -1.627951        -1.388021         1.248095
 H        -0.706999        -2.341446         0.035828
 H        -1.402039         1.303298         1.191128
 H        -0.166227         1.867913         0.071255
