19
Iteration:   903
 C        -3.728564         0.647407        -0.706909
 C        -2.425584         0.157456        -1.375551
 C        -2.351975        -0.927010        -2.434525
 C        -1.936229        -1.158672        -0.940811
 C        -0.431420        -1.247661        -0.629478
 C        -0.440882        -0.003775         0.294528
 O        -0.476645        -0.162752         1.522659
 C        -0.575369         1.283234        -0.427310
 O        -1.343271         1.073916        -1.620410
 H        -4.369847         1.164550        -1.381787
 H        -4.134707        -0.301811        -0.391504
 H        -3.534227         1.244573         0.209858
 H        -3.308453        -1.416354        -2.794734
 H        -1.481686        -0.860753        -3.054257
 H        -2.454609        -1.756544        -0.205380
 H        -0.295009        -2.183047        -0.076111
 H         0.276013        -1.245266        -1.383921
 H        -1.044546         2.069427         0.219133
 H         0.306080         1.726485        -0.782194
