19
Iteration:  3894charge 0 multiplicity 1
 C        -3.877788         0.949480        -1.668545
 C        -2.513631         0.335097        -1.552195
 C        -2.018819        -0.875721        -2.412590
 C        -2.238773        -1.082522        -0.998963
 C        -0.915767        -1.437505        -0.225576
 C        -0.296123        -0.246528         0.370373
 O         0.720909        -0.245029         1.007643
 C        -1.088968         0.995886         0.309528
 O        -1.531261         1.236145        -1.073400
 H        -4.643353         0.165720        -1.953919
 H        -4.312423         1.426147        -0.746568
 H        -3.900944         1.797835        -2.427159
 H        -2.698826        -1.317431        -3.224520
 H        -1.005615        -0.739021        -2.675796
 H        -3.167350        -1.685343        -0.818159
 H        -1.143458        -2.126220         0.598456
 H        -0.153947        -1.791767        -0.866980
 H        -1.968525         1.020738         0.897184
 H        -0.442496         1.765526         0.567151
