19
Iteration:  1946charge 0 multiplicity 1
 C        -3.888310         0.788540        -1.677697
 C        -2.470802         0.145044        -1.498645
 C        -1.881214        -0.928519        -2.455425
 C        -2.356873        -1.303558        -1.055671
 C        -1.247000        -1.259355         0.119815
 C        -0.276700        -0.081338         0.500826
 O         0.918988        -0.169082         0.639584
 C        -0.966318         1.223205         0.307893
 O        -1.591636         1.171342        -1.070315
 H        -3.777881         1.713643        -2.345325
 H        -4.596369         0.176289        -2.295124
 H        -4.368752         1.175172        -0.759642
 H        -2.488331        -1.276524        -3.301365
 H        -0.779879        -0.822288        -2.638505
 H        -3.215216        -1.926520        -0.955647
 H        -1.974293        -1.336985         0.995422
 H        -0.702494        -2.209863         0.095786
 H        -1.777162         1.400159         1.017614
 H        -0.305743         2.091707         0.336258
