19
Iteration:  4149charge 0 multiplicity 1
 C        -3.985473         0.641714        -1.700980
 C        -2.596930         0.231071        -1.365162
 C        -1.759755        -0.427045        -2.441602
 C        -2.107549        -1.187477        -1.169954
 C        -1.237285        -1.374917         0.022903
 C        -0.239861        -0.252769         0.307613
 O         0.557520        -0.316179         1.210563
 C        -0.472809         1.010351        -0.501227
 O        -1.904821         1.274202        -0.627914
 H        -4.538648        -0.212894        -2.074735
 H        -4.422246         0.957729        -0.779590
 H        -4.149183         1.450648        -2.461135
 H        -2.250850        -0.652704        -3.358843
 H        -0.710861        -0.113130        -2.609580
 H        -2.963488        -1.874314        -1.373768
 H        -1.887146        -1.319719         0.889850
 H        -0.638263        -2.282408         0.133623
 H        -0.071875         1.801418         0.074282
 H         0.162478         1.254181        -1.393756
