19
Iteration:  3796
 C        -3.919159         0.718133        -1.277840
 C        -2.486379         0.251310        -1.481069
 C        -1.970149        -0.638979        -2.581185
 C        -2.057212        -1.129433        -1.160124
 C        -0.989365        -1.526602        -0.123594
 C        -0.309339        -0.272343         0.335340
 O         0.427578        -0.315298         1.267541
 C        -0.820940         1.175942        -0.022404
 O        -1.567321         1.324863        -1.274573
 H        -4.733877         0.177398        -1.797842
 H        -4.245531         0.695628        -0.220821
 H        -3.975170         1.795465        -1.558839
 H        -2.745869        -0.908643        -3.285868
 H        -0.987437        -0.339610        -3.053824
 H        -2.832430        -1.876847        -1.086453
 H        -1.578702        -1.792905         0.734020
 H        -0.359011        -2.253280        -0.529789
 H        -1.361968         1.530016         0.948377
 H        -0.122993         1.912983        -0.147671
