19
Iteration:  3719charge 0 multiplicity 1
 C        -3.828856         1.072857        -1.441866
 C        -2.510975         0.253161        -1.460015
 C        -2.334259        -0.865356        -2.491020
 C        -2.037467        -1.287881        -1.052055
 C        -0.563119        -1.296267        -0.610975
 C        -0.314360        -0.211816         0.461531
 O         0.359107        -0.292478         1.448132
 C        -1.103686         1.080952         0.153905
 O        -1.374228         1.155570        -1.263964
 H        -4.677135         0.373986        -1.485326
 H        -3.936772         1.655413        -0.511869
 H        -3.997685         1.683026        -2.315322
 H        -3.340975        -1.316641        -2.723401
 H        -1.682040        -0.893439        -3.431419
 H        -2.628463        -1.990678        -0.420206
 H        -0.357995        -2.298359        -0.198241
 H        -0.052731        -1.135688        -1.559606
 H        -2.062154         1.246571         0.818252
 H        -0.514821         1.943646         0.337985
