19
Iteration:  3115charge 0 multiplicity 1
 C        -3.740358         0.810379        -1.775221
 C        -2.389955         0.178153        -1.461303
 C        -1.744154        -0.894571        -2.307233
 C        -2.238396        -1.253743        -0.858977
 C        -1.264491        -1.398481         0.232588
 C        -0.450441        -0.122405         0.368721
 O         0.791517        -0.184675         0.236929
 C        -1.216740         1.238593         0.441290
 O        -1.556498         1.219163        -1.031305
 H        -3.505593         1.875457        -1.933400
 H        -4.007171         0.479767        -2.726057
 H        -4.445862         0.484618        -1.005544
 H        -2.176601        -1.476346        -3.169248
 H        -0.694438        -0.614720        -2.281682
 H        -3.317560        -1.764570        -0.750298
 H        -1.735026        -1.469153         1.204875
 H        -0.456939        -2.134228         0.149649
 H        -2.099172         1.261534         1.103993
 H        -0.590758         2.141776         0.577695
