19
Iteration:   630
 C        -4.091258         0.483288        -1.616227
 C        -2.519882         0.203079        -1.506424
 C        -1.889851        -0.955265        -2.364382
 C        -2.197813        -1.130059        -0.919746
 C        -1.114382        -1.266582         0.037038
 C        -0.251395        -0.079647         0.390871
 O         0.904214        -0.229004         0.833349
 C        -0.992267         1.290747         0.089046
 O        -1.641682         1.361635        -1.195701
 H        -4.279169         1.525205        -1.908030
 H        -4.505724        -0.251857        -2.328146
 H        -4.459770         0.293387        -0.556063
 H        -2.545114        -1.463121        -3.154502
 H        -0.808585        -0.951949        -2.649800
 H        -2.977779        -1.792581        -0.561474
 H        -1.451345        -1.599745         1.097894
 H        -0.262577        -1.961026        -0.298943
 H        -1.723009         1.461750         0.906069
 H        -0.306016         2.113555         0.077139
