19
Iteration:   259charge 0 multiplicity 1
 C        -3.965875         0.718946        -1.382273
 C        -2.603294         0.084618        -1.463416
 C        -2.280730        -1.160412        -2.324785
 C        -2.085978        -1.175284        -0.798723
 C        -0.642179        -1.199520        -0.324305
 C        -0.242846         0.030864         0.400725
 O         0.456479        -0.041378         1.444611
 C        -0.797373         1.229189        -0.276159
 O        -1.612953         1.134285        -1.492101
 H        -4.684776         0.075211        -0.810984
 H        -3.823907         1.691550        -0.913209
 H        -4.389781         0.855398        -2.350924
 H        -3.025526        -1.713225        -2.842808
 H        -1.439208        -1.163818        -2.955791
 H        -2.790639        -1.737017        -0.192071
 H        -0.372947        -2.000892         0.344844
 H        -0.050906        -1.436294        -1.267064
 H        -1.341694         1.743397         0.511762
 H         0.025241         1.894344        -0.571645
