19
Iteration:  3264charge 0 multiplicity 1
 C        -4.055779         0.555334        -1.892264
 C        -2.559230         0.232981        -1.400692
 C        -1.683752        -0.464838        -2.397999
 C        -2.151368        -1.191418        -1.098537
 C        -1.299163        -1.208160         0.200753
 C        -0.180351        -0.169623         0.283360
 O         0.796967        -0.534345         0.904466
 C        -0.602208         1.239284        -0.397418
 O        -1.997212         1.202463        -0.439648
 H        -3.784860         0.820891        -2.951793
 H        -4.696536        -0.381597        -1.881282
 H        -4.634012         1.435704        -1.494350
 H        -1.976299        -0.803350        -3.440571
 H        -0.660058        -0.068960        -2.482274
 H        -2.860543        -2.009771        -1.140853
 H        -2.017089        -0.743457         0.988936
 H        -0.977490        -2.264026         0.592368
 H        -0.455788         2.041703         0.367205
 H        -0.166527         1.381454        -1.375776
