19
Iteration:  3156
 C        -3.827327         0.658147        -2.139772
 C        -2.527455         0.310297        -1.483505
 C        -1.732859        -0.807437        -2.207422
 C        -2.327034        -1.048737        -0.796340
 C        -1.239751        -1.390747         0.375399
 C        -0.256105        -0.264578         0.311131
 O         0.987261        -0.248205         0.251581
 C        -1.041182         1.052567         0.341866
 O        -1.796604         1.386528        -0.829163
 H        -4.113308         1.725651        -2.160298
 H        -4.012326         0.178603        -3.127983
 H        -4.554325         0.325218        -1.360753
 H        -1.881268        -1.468240        -3.104395
 H        -0.671987        -0.602736        -2.020658
 H        -3.212831        -1.650658        -0.905149
 H        -1.740528        -1.358784         1.333494
 H        -1.113652        -2.519102         0.176105
 H        -1.751599         1.221599         1.222721
 H        -0.379164         1.861276         0.517742
