19
Iteration:  2518charge 0 multiplicity 1
 C        -3.809865         0.842244        -2.094380
 C        -2.574168         0.198448        -1.417791
 C        -1.747236        -0.937513        -2.152172
 C        -2.353838        -1.175753        -0.751566
 C        -1.201902        -1.395482         0.223885
 C        -0.299687        -0.169271         0.372730
 O         0.947903        -0.097561         0.324388
 C        -1.022384         1.078208         0.317720
 O        -1.781023         1.266568        -0.927673
 H        -3.321788         1.837337        -2.148106
 H        -4.187738         0.370438        -3.003558
 H        -4.703004         1.137345        -1.517068
 H        -2.262045        -1.508434        -2.953818
 H        -0.643075        -0.884779        -2.338801
 H        -3.155432        -1.951009        -0.609292
 H        -1.443571        -1.894217         1.246032
 H        -0.576158        -2.193008        -0.296103
 H        -1.743738         1.167511         1.158104
 H        -0.333419         1.962409         0.284752
