19
Iteration:  4584
 C        -3.983359         0.747657        -1.807915
 C        -2.615050         0.292666        -1.490400
 C        -1.692207        -0.569982        -2.278989
 C        -2.224263        -1.120411        -0.971513
 C        -1.093002        -1.507370         0.090434
 C        -0.298135        -0.315572         0.312841
 O         0.671589        -0.385693         1.033674
 C        -0.597162         1.065404        -0.261061
 O        -1.968982         1.374153        -0.795935
 H        -4.677991         0.262482        -2.535264
 H        -4.544883         0.931032        -0.925653
 H        -3.952968         1.823407        -2.241904
 H        -2.020387        -0.949332        -3.285697
 H        -0.630003        -0.144918        -2.331348
 H        -2.990855        -1.776938        -1.294366
 H        -1.549987        -2.047050         0.918843
 H        -0.457582        -2.079762        -0.514396
 H        -0.265350         1.751704         0.573520
 H         0.061214         1.333413        -1.107094
