19
Iteration:  4745charge 0 multiplicity 1
 C        -3.969689         0.823773        -1.697945
 C        -2.560781         0.238905        -1.494416
 C        -1.882237        -0.713059        -2.421108
 C        -2.270594        -1.138902        -1.075420
 C        -1.073747        -1.350829        -0.137954
 C        -0.266736        -0.186409         0.362518
 O         0.604596        -0.402762         1.214099
 C        -0.531984         1.130631        -0.178493
 O        -1.873435         1.270235        -0.792675
 H        -4.605493         0.139786        -2.322147
 H        -4.342106         1.064160        -0.729235
 H        -3.874840         1.675120        -2.503074
 H        -2.456912        -1.124620        -3.302665
 H        -0.842668        -0.738962        -2.519427
 H        -3.082286        -1.831271        -0.965304
 H        -1.049481        -2.064397         0.682050
 H        -0.414881        -1.974298        -0.839471
 H        -0.448606         1.896000         0.584320
 H         0.261921         1.460164        -0.929361
