19
Iteration:  1920
 C        -3.879720         0.639154        -1.641607
 C        -2.386678         0.238051        -1.540880
 C        -1.726686        -0.818904        -2.375680
 C        -2.201803        -1.147250        -0.919280
 C        -1.310316        -1.218495         0.284609
 C        -0.338525        -0.132826         0.264078
 O         0.816193        -0.381362         0.519971
 C        -1.111180         1.204912         0.265441
 O        -1.571425         1.258870        -1.072832
 H        -4.135974         1.242735        -2.544453
 H        -4.548504        -0.257788        -1.817571
 H        -4.210995         1.281061        -0.788605
 H        -2.330191        -1.270245        -3.178483
 H        -0.705716        -0.515993        -2.587428
 H        -3.083756        -1.832014        -0.956434
 H        -1.925000        -1.062367         1.106829
 H        -0.905240        -2.214142         0.375661
 H        -1.956155         1.316647         0.957367
 H        -0.450323         2.124776         0.382198
