19
Iteration:  3467
 C        -3.689804         0.809955        -0.960992
 C        -2.398448         0.193289        -1.593300
 C        -2.543230        -0.847612        -2.605119
 C        -1.999689        -1.236101        -1.150485
 C        -0.622290        -1.290339        -0.534597
 C        -0.471928        -0.236463         0.512706
 O         0.152704        -0.105352         1.568464
 C        -0.935074         1.170158        -0.025454
 O        -1.226925         1.095991        -1.516710
 H        -3.666592         1.873350        -1.092553
 H        -4.584889         0.547884        -1.622604
 H        -3.930423         0.481679         0.006307
 H        -3.622081        -1.081693        -2.696409
 H        -1.845081        -0.878062        -3.513993
 H        -2.684450        -1.800322        -0.582115
 H        -0.158018        -2.202554        -0.144396
 H        -0.000278        -0.904606        -1.410542
 H        -1.916738         1.406384         0.383624
 H        -0.288525         1.979005         0.293336
