19
Iteration:  3650
 C        -3.871008         0.646863        -1.081403
 C        -2.443420         0.210837        -1.452884
 C        -2.302229        -0.647076        -2.643108
 C        -2.019938        -1.131913        -1.103987
 C        -0.718541        -1.279965        -0.524675
 C        -0.406556        -0.136326         0.506075
 O         0.116650        -0.384635         1.583872
 C        -0.749820         1.224627        -0.160782
 O        -1.344981         1.133223        -1.415271
 H        -4.538761        -0.210083        -0.889233
 H        -3.882952         1.353026        -0.173361
 H        -4.334777         1.106666        -1.959904
 H        -3.232611        -1.062061        -3.006262
 H        -1.527657        -0.498135        -3.382977
 H        -2.892102        -1.676546        -0.825024
 H        -0.617054        -2.165075         0.072645
 H         0.079087        -1.121503        -1.232121
 H        -1.358015         1.876018         0.600303
 H         0.279110         1.798206        -0.204572
