19
Iteration:  4975charge 0 multiplicity 1
 C        -3.875846         0.763588        -2.015268
 C        -2.627381         0.214234        -1.415344
 C        -1.482455        -0.459160        -2.233218
 C        -2.133866        -1.225962        -1.011090
 C        -1.375384        -1.233438         0.369308
 C        -0.325540        -0.298240         0.346188
 O         0.861682        -0.572921         0.515306
 C        -0.754825         1.182250        -0.087582
 O        -2.076680         1.269141        -0.628589
 H        -4.676487         0.050176        -1.942341
 H        -4.203745         1.597124        -1.499864
 H        -3.813862         1.187398        -3.127207
 H        -1.806365        -0.918069        -3.230002
 H        -0.295053        -0.313793        -2.254842
 H        -2.666618        -2.190766        -1.052918
 H        -2.199641        -1.055923         1.112824
 H        -0.856380        -2.215634         0.474549
 H        -0.961073         1.816632         0.807813
 H         0.001940         1.604626        -0.744464
