19
Iteration:  3211
 C        -3.860903         0.686215        -1.981628
 C        -2.494497         0.220756        -1.394289
 C        -1.558118        -0.680463        -2.215875
 C        -2.175961        -1.233667        -0.951160
 C        -1.332782        -1.317750         0.286448
 C        -0.349128        -0.173688         0.349827
 O         0.850559        -0.419996         0.429249
 C        -0.752349         1.224563         0.004962
 O        -2.090345         1.336595        -0.654989
 H        -3.596162         1.534639        -2.658321
 H        -4.415664        -0.038413        -2.591042
 H        -4.468022         0.930649        -1.075099
 H        -1.992897        -1.072815        -3.183957
 H        -0.484819        -0.493697        -2.284143
 H        -3.001970        -1.992497        -1.101382
 H        -1.970114        -1.403497         1.181291
 H        -0.778137        -2.310112         0.093345
 H        -0.998710         1.896472         0.875134
 H         0.008284         1.602337        -0.658528
