19
Iteration:    30charge 0 multiplicity 1
 C        -3.997132         0.506686        -1.209759
 C        -2.548652         0.141524        -1.515167
 C        -2.342532        -1.130088        -2.217564
 C        -2.075425        -1.066968        -0.770082
 C        -0.611605        -1.140045        -0.517735
 C        -0.282343        -0.036671         0.441414
 O         0.159494        -0.082926         1.610648
 C        -0.522949         1.250157        -0.468642
 O        -1.507682         1.245860        -1.589793
 H        -4.131061         0.193283        -0.101610
 H        -4.391221         1.549892        -1.501366
 H        -4.735348        -0.084028        -1.719089
 H        -3.272469        -1.637094        -2.508014
 H        -1.575580        -1.507593        -2.823891
 H        -2.727076        -1.804924        -0.102220
 H        -0.452326        -2.180969        -0.125964
 H         0.055659        -1.003309        -1.372857
 H        -0.874943         2.114885         0.131908
 H         0.421662         1.502304        -0.953864
