19
Iteration:  3642charge 0 multiplicity 1
 C        -3.807686         0.610125        -1.068199
 C        -2.457558         0.268659        -1.450399
 C        -2.289099        -0.629279        -2.622684
 C        -2.086873        -1.146413        -1.211856
 C        -0.675054        -1.288243        -0.449844
 C        -0.361869        -0.149796         0.478024
 O         0.066060        -0.313688         1.601590
 C        -0.687330         1.167648        -0.148342
 O        -1.421777         1.154990        -1.386524
 H        -4.526190        -0.186871        -0.934339
 H        -3.882134         1.213540        -0.106105
 H        -4.175898         1.264575        -1.831251
 H        -3.247362        -1.121649        -3.053544
 H        -1.544543        -0.436019        -3.411958
 H        -2.866875        -1.918513        -0.934603
 H        -0.583128        -2.283128         0.010998
 H         0.038481        -1.426052        -1.282450
 H        -1.168408         1.873917         0.482734
 H         0.212120         1.596597        -0.528156
