19
Iteration:  4478
 C        -3.893372         0.633984        -1.916935
 C        -2.413593         0.282941        -1.423445
 C        -1.439395        -0.552410        -2.205136
 C        -2.248293        -1.130230        -0.947870
 C        -1.415858        -1.344495         0.263713
 C        -0.405319        -0.276597         0.280963
 O         0.772671        -0.455553         0.515449
 C        -0.772808         1.139217        -0.094560
 O        -1.978917         1.375975        -0.650544
 H        -4.512029        -0.210230        -2.331855
 H        -4.463480         1.165630        -1.081707
 H        -3.811902         1.336514        -2.685313
 H        -1.688954        -0.977990        -3.205131
 H        -0.289390        -0.346297        -2.098216
 H        -3.028699        -1.852344        -1.198758
 H        -2.024177        -1.630999         1.123653
 H        -0.950003        -2.392315         0.241632
 H        -0.736949         1.721717         0.828976
 H         0.048318         1.463565        -0.748000
