19
Iteration:   945charge 0 multiplicity 1
 C        -3.690624         0.938612        -1.122888
 C        -2.417489         0.144499        -1.386029
 C        -2.525322        -1.192223        -2.209442
 C        -1.880256        -1.205783        -0.903769
 C        -0.323496        -1.103339        -0.814559
 C        -0.382045        -0.123845         0.349205
 O        -0.222612        -0.237426         1.569321
 C        -0.869519         1.257312        -0.194247
 O        -1.375921         1.086272        -1.564634
 H        -3.799160         1.525967        -1.993552
 H        -4.574137         0.391617        -0.916032
 H        -3.606996         1.669885        -0.342851
 H        -3.640623        -1.475727        -2.364902
 H        -1.931565        -1.389166        -3.103484
 H        -2.378408        -1.632534        -0.053908
 H         0.138025        -2.077400        -0.396995
 H         0.114093        -0.734306        -1.734896
 H        -1.581332         1.775781         0.516372
 H         0.073075         1.802288        -0.141809
