19
Iteration:  1006charge 0 multiplicity 1
 C        -3.842512         0.707397        -1.311230
 C        -2.446573         0.228287        -1.509687
 C        -2.282315        -0.920177        -2.496838
 C        -2.184320        -1.163284        -1.003652
 C        -0.811292        -1.397477        -0.265207
 C        -0.372958        -0.170933         0.429513
 O         0.402089        -0.015671         1.351982
 C        -0.786146         1.169881        -0.090901
 O        -1.434968         1.174523        -1.383132
 H        -4.263758         1.507716        -2.049880
 H        -4.599568        -0.150238        -1.437679
 H        -3.882505         1.001451        -0.230557
 H        -3.273667        -1.229558        -2.913316
 H        -1.517145        -0.862960        -3.241700
 H        -2.989926        -1.770400        -0.537189
 H        -0.806690        -2.163245         0.520862
 H         0.081521        -1.679465        -0.915563
 H        -1.515906         1.629904         0.569316
 H         0.196683         1.768891        -0.129386
