19
Iteration:  4639
 C        -3.937597         0.661611        -1.593283
 C        -2.475059         0.251143        -1.463580
 C        -1.818707        -0.498184        -2.588734
 C        -2.133057        -1.170711        -1.226983
 C        -1.241852        -1.320619         0.062202
 C        -0.282423        -0.212113         0.304314
 O         0.502242        -0.377375         1.203075
 C        -0.478032         1.137967        -0.440578
 O        -1.825714         1.185570        -0.573110
 H        -4.562041        -0.214108        -1.901328
 H        -4.424798         0.980162        -0.686706
 H        -3.929875         1.503864        -2.372004
 H        -2.652052        -0.914323        -3.314476
 H        -0.766554        -0.447539        -2.904943
 H        -2.947157        -1.888222        -1.215942
 H        -2.019370        -1.067394         0.826305
 H        -0.729337        -2.287765         0.112478
 H        -0.152235         1.909904         0.352776
 H        -0.057390         1.332001        -1.430307
