19
Iteration:  3070
 C        -3.815900         0.797786        -1.591101
 C        -2.404828         0.206775        -1.515004
 C        -1.927789        -0.881402        -2.430722
 C        -2.212774        -1.129773        -0.954095
 C        -1.175329        -1.426898         0.224689
 C        -0.348605        -0.092720         0.380874
 O         0.832866        -0.098595         0.611323
 C        -1.315200         1.128556         0.254112
 O        -1.385981         1.130333        -1.197059
 H        -3.774510         1.460509        -2.456721
 H        -4.628228         0.151197        -1.795906
 H        -4.127546         1.240503        -0.618411
 H        -2.619415        -1.152761        -3.211273
 H        -0.832673        -0.733160        -2.644219
 H        -3.148887        -1.722275        -0.776183
 H        -1.757831        -1.448380         1.108588
 H        -0.571011        -2.362951         0.080412
 H        -2.297220         0.938745         0.735963
 H        -0.777211         1.927310         0.666533
