19
Iteration:  2445charge 0 multiplicity 1
 C        -3.986361         0.769872        -1.612729
 C        -2.527392         0.180677        -1.454926
 C        -1.712990        -0.751751        -2.302277
 C        -2.123051        -1.135179        -0.871363
 C        -1.185852        -1.549573         0.165082
 C        -0.412042        -0.209996         0.376855
 O         0.803951        -0.147969         0.611525
 C        -1.134545         1.184662         0.142627
 O        -1.517368         1.247406        -1.232189
 H        -4.181573         1.214725        -2.634847
 H        -4.713978         0.001183        -1.381165
 H        -4.240929         1.547439        -0.865696
 H        -2.101429        -1.227060        -3.162678
 H        -0.676795        -0.454282        -2.316493
 H        -3.015087        -1.791012        -0.926973
 H        -1.573914        -1.788847         1.158159
 H        -0.630191        -2.387379        -0.109660
 H        -2.026882         1.562000         0.705154
 H        -0.237602         1.901162         0.289450
