19
Iteration:  1569charge 0 multiplicity 1
 C        -3.814659         0.656381        -1.009545
 C        -2.435592         0.236666        -1.474686
 C        -2.426879        -0.861448        -2.465709
 C        -2.056424        -1.156812        -0.966184
 C        -0.645439        -1.379027        -0.366489
 C        -0.349427        -0.134073         0.340097
 O         0.009058        -0.136067         1.502560
 C        -0.715996         1.231526        -0.271766
 O        -1.293564         1.168754        -1.593753
 H        -4.432770         1.070068        -1.833960
 H        -4.310086        -0.262558        -0.677159
 H        -3.786367         1.365184        -0.191550
 H        -3.381684        -1.361665        -2.728833
 H        -1.625413        -0.833008        -3.238618
 H        -2.860399        -1.628403        -0.465913
 H        -0.519709        -2.038826         0.493069
 H         0.223244        -1.632705        -1.062836
 H        -1.378104         1.875906         0.319431
 H         0.137738         1.838257        -0.427456
