19
Iteration:  4242
 C        -3.986960         0.665709        -1.853311
 C        -2.589545         0.336381        -1.409890
 C        -1.865914        -0.639026        -2.412760
 C        -2.247323        -1.113789        -1.033508
 C        -1.076055        -1.458836        -0.003769
 C        -0.255486        -0.254735         0.456666
 O         0.788249        -0.393981         1.081803
 C        -0.652333         1.101354        -0.057273
 O        -1.890713         1.415434        -0.967223
 H        -4.475689         0.075225        -2.638695
 H        -4.719935         0.594179        -0.963283
 H        -4.198012         1.692616        -2.174563
 H        -2.411564        -0.849872        -3.328976
 H        -0.786878        -0.617416        -2.561322
 H        -3.178298        -1.705673        -0.861267
 H        -1.624556        -1.992295         0.810598
 H        -0.431561        -2.286398        -0.362876
 H        -0.524971         1.789599         0.819153
 H         0.259445         1.348125        -0.632468
