19
Iteration:   405charge 0 multiplicity 1
 C        -3.974585         0.517738        -2.055725
 C        -2.539892         0.157390        -1.433272
 C        -1.942366        -0.954048        -2.249670
 C        -2.248399        -1.078984        -0.712417
 C        -0.989880        -1.248163         0.117633
 C        -0.111922        -0.067888         0.220027
 O         0.972563        -0.224201         0.705773
 C        -0.959809         1.248556         0.116524
 O        -1.954947         1.330681        -0.897423
 H        -4.060568         1.570733        -2.269771
 H        -4.182543         0.118474        -3.085837
 H        -4.846810         0.072645        -1.458135
 H        -2.602953        -1.404484        -3.030498
 H        -0.822541        -0.874421        -2.464701
 H        -3.038667        -1.852394        -0.543734
 H        -1.266538        -1.509602         1.178370
 H        -0.459905        -2.188931        -0.235351
 H        -1.388054         1.472139         1.085218
 H        -0.218465         2.038515         0.014877
