19
Iteration:  2538charge 0 multiplicity 1
 C        -3.806326         0.808855        -2.013362
 C        -2.530471         0.232492        -1.483501
 C        -1.696254        -0.825773        -2.016880
 C        -2.396050        -1.190031        -0.746552
 C        -1.157016        -1.410632         0.194611
 C        -0.305326        -0.215633         0.222922
 O         0.942546        -0.218133         0.353876
 C        -1.126600         1.218619         0.285207
 O        -1.741410         1.245396        -0.973186
 H        -3.754343         1.864903        -2.261581
 H        -4.193209         0.086742        -2.746005
 H        -4.624364         0.717698        -1.299539
 H        -1.739173        -1.345521        -3.034925
 H        -0.602840        -0.555777        -1.945650
 H        -3.345746        -1.772766        -0.632732
 H        -1.582295        -1.595697         1.173612
 H        -0.667646        -2.452709         0.009952
 H        -1.842529         1.150932         1.180643
 H        -0.454785         2.086388         0.299783
