19
Iteration:   586
 C        -3.962352         0.621687        -1.918563
 C        -2.583513         0.156927        -1.407611
 C        -1.770129        -0.867969        -2.219096
 C        -2.290555        -1.206364        -0.885604
 C        -1.117235        -1.343463         0.207780
 C        -0.209177        -0.111815         0.283985
 O         0.955241        -0.112027         0.643634
 C        -0.825525         1.189183         0.014772
 O        -2.003861         1.317624        -0.901199
 H        -3.664493         1.223854        -2.783326
 H        -4.484621        -0.279449        -2.295131
 H        -4.523646         1.150289        -1.101237
 H        -2.193061        -1.423884        -3.131620
 H        -0.674968        -0.776789        -2.291060
 H        -3.067678        -1.936971        -0.762396
 H        -1.626266        -1.488760         1.243258
 H        -0.571724        -2.290455        -0.132594
 H        -1.095607         1.545957         1.013245
 H        -0.033329         1.771084        -0.387074
