19
Iteration:  4392
 C        -3.797504         0.757039        -2.059146
 C        -2.496741         0.271818        -1.446386
 C        -1.527369        -0.653578        -2.250809
 C        -2.237407        -1.109645        -1.003663
 C        -1.429958        -1.309663         0.399889
 C        -0.310064        -0.273117         0.375403
 O         0.900525        -0.446976         0.518980
 C        -0.767125         1.148754        -0.171890
 O        -2.154686         1.244982        -0.502247
 H        -4.109897         0.231659        -2.983553
 H        -4.593514         0.873735        -1.229318
 H        -3.616846         1.751648        -2.354002
 H        -1.805355        -0.985125        -3.245729
 H        -0.384606        -0.509469        -2.266311
 H        -2.949876        -1.920001        -1.149122
 H        -2.150175        -1.069861         1.171779
 H        -0.787915        -2.297606         0.381835
 H        -0.475809         1.901528         0.517861
 H        -0.090414         1.300175        -1.057721
