19
Iteration:  2498charge 0 multiplicity 1
 C        -3.705233         0.767772        -2.058562
 C        -2.439296         0.212711        -1.425709
 C        -2.008789        -0.956035        -2.321599
 C        -2.234108        -1.215318        -0.833809
 C        -1.131273        -1.439640         0.270403
 C        -0.285534        -0.077547         0.345707
 O         0.957536        -0.192660         0.372615
 C        -1.143929         1.141842         0.366292
 O        -1.764120         1.336521        -0.888716
 H        -3.523011         1.806247        -2.509216
 H        -4.160713         0.018309        -2.722581
 H        -4.512458         0.970980        -1.292313
 H        -2.725493        -1.270276        -3.038457
 H        -0.967125        -0.961513        -2.662685
 H        -3.153593        -1.824591        -0.686871
 H        -1.564095        -1.187231         1.313248
 H        -0.555936        -2.341436         0.295498
 H        -1.881993         1.250841         1.126912
 H        -0.472703         2.065953         0.470065
