19
Iteration:  2801charge 0 multiplicity 1
 C        -3.823563         0.693924        -0.908631
 C        -2.488886         0.098719        -1.367529
 C        -2.347750        -0.891509        -2.519616
 C        -1.976829        -1.236339        -1.000674
 C        -0.528220        -1.337241        -0.497860
 C        -0.360991        -0.117824         0.355696
 O        -0.257561        -0.084472         1.560807
 C        -0.479708         1.213131        -0.446174
 O        -1.467906         1.197132        -1.451764
 H        -4.522996         1.077283        -1.691120
 H        -4.269343         0.031008        -0.205330
 H        -3.593449         1.668989        -0.440655
 H        -3.241236        -1.100482        -3.087969
 H        -1.422338        -0.751813        -2.966068
 H        -2.643397        -1.827780        -0.418038
 H        -0.294142        -2.260648         0.052955
 H         0.149061        -1.322783        -1.418762
 H        -0.722728         1.998361         0.279575
 H         0.401707         1.640594        -1.065048
