19
Iteration:  4009
 C        -4.002463         0.729013        -1.559614
 C        -2.431295         0.268106        -1.512650
 C        -1.969543        -0.674419        -2.514378
 C        -2.136347        -1.140435        -1.108420
 C        -1.135568        -1.370084        -0.049420
 C        -0.329528        -0.197650         0.369620
 O         0.720451        -0.385504         0.972468
 C        -0.958381         1.214765         0.227829
 O        -1.496730         1.222748        -1.107299
 H        -4.620604        -0.182334        -1.637899
 H        -4.268480         1.339324        -0.622346
 H        -4.126057         1.343713        -2.499875
 H        -2.651943        -1.139624        -3.286231
 H        -1.019638        -0.359833        -2.844471
 H        -3.009015        -1.749779        -0.893137
 H        -1.884677        -1.644338         0.702622
 H        -0.447836        -2.263917        -0.275866
 H        -1.640476         1.309566         1.095464
 H        -0.151136         2.028614         0.339261
