19
Iteration:  4507
 C        -3.959705         0.658111        -1.896556
 C        -2.562632         0.252915        -1.435166
 C        -1.644379        -0.537626        -2.366061
 C        -2.229343        -1.203657        -1.008018
 C        -1.325497        -1.284075         0.221059
 C        -0.228787        -0.297128         0.340111
 O         0.913169        -0.541618         0.730942
 C        -0.795021         1.131937         0.028742
 O        -1.937755         1.429326        -0.804090
 H        -4.603213        -0.139140        -2.376505
 H        -4.564549         1.180017        -1.205937
 H        -3.990890         1.375275        -2.835719
 H        -1.838643        -1.023692        -3.314495
 H        -0.534912        -0.248467        -2.410619
 H        -2.955118        -1.963819        -1.133052
 H        -2.048363        -1.153842         1.082219
 H        -1.026764        -2.270694         0.375014
 H        -0.979947         1.747843         0.994346
 H         0.069153         1.673574        -0.447941
