19
Iteration:   329
 C        -3.852667         0.579070        -1.238026
 C        -2.381532         0.111547        -1.647604
 C        -2.105182        -1.063862        -2.555770
 C        -2.202317        -1.239264        -1.023143
 C        -1.074244        -1.248317         0.071965
 C        -0.316809         0.073255         0.472752
 O         0.804592        -0.031026         0.935576
 C        -1.208994         1.375827         0.065675
 O        -1.393075         1.099862        -1.388053
 H        -3.778343         1.137299        -0.313945
 H        -4.499700         1.176488        -1.915603
 H        -4.476312        -0.296997        -0.853970
 H        -2.903906        -1.468010        -3.186922
 H        -1.106903        -1.066496        -3.140867
 H        -3.145065        -1.733562        -0.784438
 H        -1.614169        -1.646526         0.972026
 H        -0.193425        -1.851027         0.061419
 H        -2.193971         1.248534         0.606499
 H        -0.760556         2.377772         0.185427
