19
Iteration:  1460
 C        -3.672928         0.614417        -0.803537
 C        -2.385391         0.176341        -1.422057
 C        -2.423120        -0.992652        -2.302937
 C        -2.000217        -1.081544        -0.806952
 C        -0.563856        -1.188755        -0.683023
 C        -0.406069        -0.104333         0.307568
 O        -0.508546        -0.219731         1.511459
 C        -0.449830         1.286844        -0.457265
 O        -1.284877         1.139774        -1.611240
 H        -3.946425         1.731577        -0.920109
 H        -4.603583         0.242310        -1.345163
 H        -3.974117         0.387005         0.254210
 H        -3.369782        -1.495634        -2.605429
 H        -1.564963        -1.053663        -3.044079
 H        -2.633433        -1.499884        -0.035383
 H        -0.192215        -2.068612        -0.248713
 H        -0.006220        -0.915273        -1.578950
 H        -0.599729         2.135693         0.183959
 H         0.564637         1.321332        -0.886919
