19
Iteration:   743charge 0 multiplicity 1
 C        -3.996272         0.733198        -1.472829
 C        -2.563860         0.171077        -1.437850
 C        -2.268045        -1.044178        -2.375299
 C        -2.123923        -1.209825        -0.832203
 C        -0.591437        -1.246275        -0.454057
 C        -0.263232        -0.070719         0.409726
 O         0.461263        -0.094021         1.396085
 C        -0.897894         1.235783        -0.052203
 O        -1.515777         1.136401        -1.382302
 H        -4.218898         1.054248        -2.489089
 H        -4.756135         0.037689        -1.155664
 H        -4.092212         1.643138        -0.928554
 H        -3.133005        -1.434404        -2.874304
 H        -1.460364        -0.902795        -3.004069
 H        -2.738703        -1.871865        -0.205905
 H        -0.384344        -2.227937        -0.009105
 H        -0.016050        -1.300242        -1.460106
 H        -1.553118         1.480890         0.775024
 H        -0.130336         2.047479        -0.123198
