19
Iteration:  2616
 C        -3.962606         0.695267        -1.584749
 C        -2.552833         0.175118        -1.475670
 C        -1.626962        -0.694706        -2.309900
 C        -2.113514        -1.225192        -1.006308
 C        -1.238015        -1.373817         0.216585
 C        -0.374209        -0.134545         0.282759
 O         0.820385        -0.315091         0.629007
 C        -1.051251         1.213080         0.162149
 O        -1.669420         1.245372        -1.141248
 H        -4.178716         1.227309        -2.546560
 H        -4.710104        -0.056292        -1.380979
 H        -4.048355         1.558877        -0.900194
 H        -2.002881        -1.252838        -3.176039
 H        -0.563497        -0.332364        -2.284196
 H        -2.973642        -1.907702        -1.181093
 H        -2.019818        -1.262607         0.984387
 H        -0.607781        -2.305756         0.166474
 H        -1.761305         1.503203         1.004320
 H        -0.320004         2.107231         0.235617
