19
Iteration:  4248
 C        -4.024941         0.696147        -1.829812
 C        -2.537846         0.309659        -1.467397
 C        -1.820061        -0.689766        -2.388612
 C        -2.298656        -1.137749        -1.014623
 C        -1.090397        -1.434082        -0.046255
 C        -0.236196        -0.302397         0.418021
 O         0.771681        -0.381678         1.074539
 C        -0.705024         1.111300        -0.053416
 O        -1.859917         1.449841        -0.910496
 H        -4.403820        -0.001770        -2.615984
 H        -4.496647         0.567147        -0.868151
 H        -4.141254         1.723587        -2.196074
 H        -2.323353        -1.021293        -3.347330
 H        -0.745960        -0.602614        -2.577422
 H        -3.202788        -1.649466        -0.778395
 H        -1.565732        -1.776498         0.873802
 H        -0.444686        -2.243667        -0.473685
 H        -0.686257         1.803160         0.773416
 H         0.163403         1.508361        -0.655771
