19
Iteration:   472charge 0 multiplicity 1
 C        -3.933745         0.524609        -1.902547
 C        -2.624871         0.135904        -1.416969
 C        -1.462925        -0.562273        -2.180009
 C        -1.994022        -1.179877        -0.872186
 C        -1.337928        -1.298056         0.534593
 C        -0.298427        -0.154880         0.336484
 O         0.941445        -0.361210         0.332492
 C        -0.936958         1.184842        -0.145546
 O        -2.127014         1.311482        -0.820767
 H        -3.845412         0.995632        -2.914646
 H        -4.662437        -0.300306        -2.078216
 H        -4.448995         1.210854        -1.180520
 H        -1.638892        -1.007036        -3.192902
 H        -0.559447         0.022100        -2.183629
 H        -2.531701        -2.192904        -0.976334
 H        -2.041789        -1.068465         1.420915
 H        -0.773920        -2.179630         0.789654
 H        -1.027980         1.784447         0.779033
 H        -0.252054         1.755873        -0.743679
