19
Iteration:  1756charge 0 multiplicity 1
 C        -3.946322         0.540095        -1.696212
 C        -2.428824         0.275741        -1.554903
 C        -1.791745        -0.800484        -2.416289
 C        -2.179498        -1.055460        -0.960432
 C        -1.377615        -1.282387         0.327513
 C        -0.302517        -0.202472         0.431775
 O         0.905196        -0.373098         0.640092
 C        -0.905705         1.220474         0.081938
 O        -1.709903         1.341028        -1.096327
 H        -4.205059         1.321799        -2.403249
 H        -4.330913        -0.408224        -2.106142
 H        -4.208137         0.770978        -0.692063
 H        -2.497888        -1.170040        -3.106047
 H        -0.753980        -0.650180        -2.669749
 H        -3.171459        -1.568288        -0.830618
 H        -2.079067        -1.111535         1.200136
 H        -1.009988        -2.334279         0.440052
 H        -1.461280         1.503333         1.009754
 H        -0.019020         1.847624         0.042370
