19
Iteration:  1872charge 0 multiplicity 1
 C        -3.850345         0.706989        -1.915817
 C        -2.485905         0.232981        -1.396738
 C        -1.676432        -0.787973        -2.147346
 C        -2.300820        -1.158628        -0.822502
 C        -1.238428        -1.378204         0.298122
 C        -0.400022        -0.186462         0.277312
 O         0.819122        -0.298211         0.364577
 C        -0.992664         1.160960         0.197234
 O        -1.663583         1.343102        -1.018235
 H        -3.899041         1.269602        -2.824966
 H        -4.422870        -0.159161        -2.103709
 H        -4.267252         1.290947        -1.119407
 H        -2.104284        -1.292085        -2.982694
 H        -0.596738        -0.777732        -1.987625
 H        -3.196308        -1.768260        -0.871058
 H        -1.704293        -1.381158         1.284221
 H        -0.754333        -2.361395         0.158989
 H        -1.728307         1.487025         0.992005
 H        -0.284711         1.933026         0.173200
