19
Iteration:  2998
 C        -3.985119         0.684436        -1.598191
 C        -2.550607         0.247121        -1.405590
 C        -2.249241        -0.904607        -2.418779
 C        -2.158008        -1.108634        -0.938165
 C        -0.763392        -1.368637        -0.235623
 C        -0.221655        -0.226701         0.407131
 O         0.506853        -0.226818         1.416836
 C        -0.786128         1.229810        -0.125697
 O        -1.530479         1.287318        -1.347096
 H        -4.196421         0.784227        -2.708976
 H        -4.799673        -0.022610        -1.268255
 H        -4.216123         1.543372        -0.906252
 H        -3.146754        -1.257449        -2.923228
 H        -1.322139        -0.641035        -2.925192
 H        -2.920189        -1.725805        -0.330444
 H        -0.799615        -2.297724         0.460517
 H        -0.113087        -1.592846        -1.066495
 H        -1.383345         1.596865         0.798130
 H         0.036907         2.045464        -0.299027
