19
Iteration:  4797charge 0 multiplicity 1
 C        -4.035677         0.688323        -1.739579
 C        -2.593172         0.296901        -1.438303
 C        -1.774697        -0.520049        -2.443461
 C        -2.209539        -1.114705        -1.095974
 C        -1.154738        -1.439141        -0.007888
 C        -0.263470        -0.270890         0.366153
 O         0.623776        -0.334038         1.172988
 C        -0.522745         1.024009        -0.378610
 O        -1.826734         1.311800        -0.700267
 H        -4.611796        -0.224033        -2.005824
 H        -4.529846         1.136797        -0.805767
 H        -4.202660         1.318715        -2.599545
 H        -2.309076        -0.687430        -3.389055
 H        -0.778723        -0.240296        -2.493072
 H        -3.010001        -1.839649        -1.311455
 H        -1.651558        -1.643839         0.917843
 H        -0.720420        -2.387279        -0.147698
 H        -0.341711         1.694741         0.426266
 H         0.234049         1.287509        -1.120068
