19
Iteration:   414charge 0 multiplicity 1
 C        -3.877769         0.435486        -2.040151
 C        -2.497763         0.159504        -1.452554
 C        -1.903511        -0.947450        -2.289938
 C        -2.283643        -1.111412        -0.682534
 C        -1.054131        -1.192116         0.088960
 C        -0.166144        -0.051407         0.187918
 O         0.973423        -0.291166         0.666380
 C        -0.952469         1.293071         0.118051
 O        -2.019035         1.373315        -0.831543
 H        -3.839860         1.516585        -2.077096
 H        -3.977200        -0.092388        -2.995995
 H        -4.680262         0.229589        -1.225476
 H        -2.568235        -1.340058        -3.064203
 H        -0.783442        -1.099136        -2.557468
 H        -3.121222        -1.737012        -0.442862
 H        -1.341327        -1.186205         1.138684
 H        -0.344146        -2.142742        -0.112433
 H        -1.339141         1.377574         1.141810
 H        -0.263014         2.170704        -0.160935
