19
Iteration:  2921
 C        -3.621554         0.833999        -0.706986
 C        -2.402217         0.128178        -1.495338
 C        -2.500317        -0.931821        -2.547940
 C        -1.863509        -1.236095        -1.106245
 C        -0.490972        -1.265826        -0.496896
 C        -0.513673        -0.026548         0.387790
 O        -0.244136        -0.092473         1.588923
 C        -0.836775         1.216438        -0.333998
 O        -1.259510         0.952813        -1.653582
 H        -3.555364         1.958937        -0.894458
 H        -4.560429         0.456977        -1.083358
 H        -3.541175         0.863875         0.403499
 H        -3.401382        -1.466068        -2.562609
 H        -1.814332        -0.690266        -3.368083
 H        -2.568113        -1.892001        -0.525744
 H        -0.288664        -2.150885         0.170633
 H         0.262735        -1.265345        -1.280895
 H        -1.576695         1.874974         0.236044
 H         0.021635         1.946919        -0.313200
