19
Iteration:  2074
 C        -3.856769         0.865594        -1.126406
 C        -2.562896         0.206623        -1.600798
 C        -2.175068        -0.945402        -2.460566
 C        -2.105540        -1.143187        -0.989999
 C        -0.745326        -1.317098        -0.301633
 C        -0.289342        -0.136320         0.376179
 O         0.287634        -0.100928         1.449966
 C        -0.821850         1.084346        -0.177248
 O        -1.455542         1.120898        -1.490348
 H        -4.328797         1.361697        -2.014612
 H        -4.585737         0.104642        -0.736116
 H        -3.740825         1.671005        -0.399612
 H        -3.001459        -1.492568        -3.049776
 H        -1.232985        -0.846186        -3.024806
 H        -2.862292        -1.758669        -0.567053
 H        -1.026985        -2.050755         0.469592
 H        -0.037899        -1.820260        -1.004156
 H        -1.545704         1.201371         0.681035
 H        -0.082600         1.969505        -0.186126
