19
Iteration:  4179
 C        -3.919858         0.682449        -1.567827
 C        -2.495824         0.227763        -1.484502
 C        -1.596833        -0.601510        -2.466031
 C        -2.189139        -1.138490        -1.208136
 C        -1.354751        -1.429652        -0.003076
 C        -0.272812        -0.168933         0.261296
 O         0.556337        -0.300876         1.170800
 C        -0.508069         1.102152        -0.450857
 O        -1.967188         1.225160        -0.567630
 H        -4.505233        -0.215787        -1.720477
 H        -3.979766         0.898907        -0.532647
 H        -4.224104         1.557285        -2.223524
 H        -2.073355        -0.734097        -3.438718
 H        -0.528834        -0.356783        -2.501332
 H        -3.178955        -1.758840        -1.471632
 H        -1.900824        -1.348170         0.977615
 H        -0.647040        -2.218844        -0.045353
 H        -0.087851         2.138399        -0.008348
 H        -0.078646         1.190855        -1.472213
