19
Iteration:  3671charge 0 multiplicity 1
 C        -3.874780         0.809482        -1.147112
 C        -2.473531         0.348571        -1.529468
 C        -2.304417        -0.864630        -2.489204
 C        -2.094121        -1.183575        -1.096001
 C        -0.568663        -1.258636        -0.584736
 C        -0.405754        -0.164204         0.446493
 O         0.169475        -0.412186         1.506695
 C        -0.925215         1.215212         0.023792
 O        -1.270391         1.145614        -1.411882
 H        -4.551932         0.052998        -0.699231
 H        -3.834181         1.665324        -0.385494
 H        -4.503851         1.101784        -2.023261
 H        -3.090624        -1.224570        -3.131633
 H        -1.407186        -0.854430        -3.073066
 H        -2.923302        -1.777107        -0.687490
 H        -0.353134        -2.211958        -0.099815
 H         0.099761        -1.066672        -1.431638
 H        -1.814568         1.728105         0.601835
 H        -0.060922         2.046854         0.093297
