19
Iteration:  1755
 C        -3.942083         0.539858        -1.696300
 C        -2.430880         0.269584        -1.549076
 C        -1.794297        -0.797070        -2.429787
 C        -2.181304        -1.063012        -0.967890
 C        -1.384306        -1.273074         0.328706
 C        -0.300128        -0.202145         0.442124
 O         0.906780        -0.371035         0.642380
 C        -0.901815         1.213620         0.084896
 O        -1.707063         1.342818        -1.097950
 H        -4.201797         1.317210        -2.414150
 H        -4.341459        -0.442629        -2.060598
 H        -4.200873         0.766046        -0.640246
 H        -2.520977        -1.130877        -3.126759
 H        -0.749881        -0.638060        -2.685954
 H        -3.170375        -1.570968        -0.822228
 H        -2.080945        -1.088600         1.177755
 H        -0.998533        -2.339970         0.459581
 H        -1.478362         1.523915         0.970849
 H        -0.032979         1.836298         0.024203
