19
Iteration:  2980charge 0 multiplicity 1
 C        -4.016653         0.742458        -1.399341
 C        -2.505943         0.261172        -1.507059
 C        -2.262859        -0.902247        -2.361278
 C        -2.078346        -1.157240        -0.890351
 C        -0.672491        -1.398860        -0.413825
 C        -0.307955        -0.084667         0.425057
 O         0.319624        -0.255014         1.494858
 C        -0.719095         1.241771        -0.137555
 O        -1.485122         1.227805        -1.422921
 H        -4.275904         1.127870        -2.368880
 H        -4.758040        -0.107135        -1.294728
 H        -4.332372         1.350192        -0.555218
 H        -3.092008        -1.373196        -2.966540
 H        -1.380168        -1.061558        -2.946505
 H        -2.869568        -1.767858        -0.566788
 H        -0.656251        -2.169574         0.346667
 H         0.154046        -1.588282        -1.169541
 H        -1.356588         1.842003         0.475251
 H         0.161375         1.789590        -0.521993
