19
Iteration:  1206charge 0 multiplicity 1
 C        -3.715790         0.675897        -1.976977
 C        -2.306485         0.233465        -1.409980
 C        -1.510583        -0.873569        -2.086198
 C        -2.203409        -1.152505        -0.729105
 C        -1.341379        -1.285376         0.481185
 C        -0.465102        -0.162217         0.304039
 O         0.660551        -0.361380        -0.103847
 C        -1.179399         1.229746         0.380112
 O        -1.677970         1.346485        -0.944170
 H        -3.534318         1.431541        -2.772663
 H        -4.392641        -0.117513        -2.350202
 H        -4.354628         1.264820        -1.199759
 H        -1.960788        -1.384568        -2.946496
 H        -0.475535        -0.745356        -2.049423
 H        -2.977852        -1.913770        -0.800837
 H        -1.884963        -1.220129         1.354637
 H        -0.814233        -2.201024         0.344976
 H        -1.976283         1.169953         1.208843
 H        -0.492432         2.002876         0.555632
