19
Iteration:  4322
 C        -4.107453         0.688469        -1.898628
 C        -2.547503         0.297836        -1.534501
 C        -1.679951        -0.555357        -2.412261
 C        -2.171437        -1.016819        -0.970272
 C        -1.285200        -1.378804         0.285903
 C        -0.224044        -0.246421         0.372945
 O         0.895670        -0.462712         0.822875
 C        -0.764516         1.032961        -0.027413
 O        -1.879529         1.314122        -0.817863
 H        -4.468519        -0.254172        -2.266913
 H        -4.669706         1.169821        -1.191113
 H        -3.984175         1.294838        -2.862871
 H        -2.139581        -1.051062        -3.285538
 H        -0.705573        -0.211663        -2.657534
 H        -2.878814        -1.849759        -1.174599
 H        -2.003966        -1.326651         1.123763
 H        -0.959860        -2.305025        -0.011850
 H        -0.978535         1.508762         0.993113
 H         0.082989         1.569996        -0.365507
