19
Iteration:   731
 C        -3.968126         0.736186        -1.452242
 C        -2.576700         0.136973        -1.469239
 C        -2.217681        -0.962377        -2.329117
 C        -2.177326        -1.116031        -0.792091
 C        -0.669676        -1.308802        -0.479672
 C        -0.287292        -0.087499         0.407325
 O         0.547523        -0.055838         1.317105
 C        -1.095546         1.200572        -0.015781
 O        -1.372771         1.069893        -1.395904
 H        -4.298764         0.956365        -2.445451
 H        -4.624559        -0.017810        -1.031379
 H        -3.989159         1.566533        -0.726458
 H        -2.938583        -1.492164        -2.905407
 H        -1.243765        -0.917879        -2.721940
 H        -2.992393        -1.763588        -0.435849
 H        -0.272687        -2.199249         0.061653
 H        -0.010720        -1.036241        -1.402346
 H        -2.011073         1.509287         0.497794
 H        -0.312641         2.013500         0.104261
