19
Iteration:  1493charge 0 multiplicity 1
 C        -3.791326         0.718635        -0.800303
 C        -2.462605         0.145788        -1.301039
 C        -2.441425        -0.819072        -2.375727
 C        -1.861021        -1.254194        -0.990201
 C        -0.430264        -1.441631        -0.467021
 C        -0.287342        -0.147994         0.258150
 O        -0.540736        -0.061745         1.453372
 C        -0.398317         1.191498        -0.496504
 O        -1.419213         1.234266        -1.535095
 H        -4.004588         1.666507        -1.459399
 H        -4.572854        -0.077276        -1.025637
 H        -3.874737         0.973245         0.297343
 H        -3.369736        -1.349416        -2.615093
 H        -1.642058        -0.537456        -3.137343
 H        -2.673577        -1.770798        -0.574012
 H        -0.404790        -2.254777         0.221211
 H         0.284111        -1.578682        -1.284852
 H        -0.600077         1.960549         0.216204
 H         0.445690         1.526093        -1.098702
