19
Iteration:  3336
 C        -4.005601         0.786086        -1.524057
 C        -2.564022         0.194971        -1.396999
 C        -1.845127        -0.668967        -2.387206
 C        -2.148659        -1.213359        -1.054324
 C        -0.965830        -1.454048        -0.122391
 C        -0.323787        -0.210661         0.354788
 O         0.583805        -0.299418         1.145410
 C        -0.674601         1.137468        -0.202316
 O        -1.836687         1.327009        -1.034310
 H        -3.924602         1.739444        -1.992706
 H        -4.510560         0.087994        -2.217540
 H        -4.555868         0.840000        -0.628227
 H        -2.372713        -1.040315        -3.273773
 H        -0.864842        -0.382190        -2.658320
 H        -3.053923        -1.790437        -1.027212
 H        -1.275972        -1.938382         0.794856
 H        -0.202351        -2.041848        -0.531484
 H        -0.914913         1.766373         0.613276
 H         0.231765         1.491350        -0.695008
