19
Iteration:  4830charge 0 multiplicity 1
 C        -3.940261         0.592253        -1.664861
 C        -2.522736         0.295686        -1.444317
 C        -1.656547        -0.573022        -2.487502
 C        -2.183780        -1.132524        -1.203108
 C        -1.337841        -1.232802         0.109189
 C        -0.243846        -0.170030         0.381401
 O         0.643262        -0.562882         1.117187
 C        -0.560487         1.173046        -0.491789
 O        -1.923703         1.304315        -0.581864
 H        -4.327275        -0.293080        -2.202853
 H        -4.508717         0.597866        -0.687936
 H        -4.108628         1.543264        -2.125682
 H        -2.217735        -0.656557        -3.454641
 H        -0.654862        -0.482184        -2.721354
 H        -3.012505        -1.882422        -1.311833
 H        -1.992864        -1.036852         0.962994
 H        -0.877741        -2.179706         0.185842
 H        -0.180339         1.995085         0.068808
 H        -0.104517         1.127444        -1.480836
