19
Iteration:  4059charge 0 multiplicity 1
 C        -3.999120         0.767678        -1.698221
 C        -2.537332         0.256229        -1.444515
 C        -1.870102        -0.664386        -2.431164
 C        -2.225996        -1.135382        -1.039551
 C        -1.007162        -1.502048        -0.041576
 C        -0.241412        -0.257344         0.244973
 O         0.611679        -0.357391         1.117223
 C        -0.703116         1.121253        -0.055941
 O        -1.790191         1.419234        -0.957545
 H        -4.457880        -0.103472        -2.128043
 H        -4.367200         0.990440        -0.759484
 H        -3.958670         1.645591        -2.366457
 H        -2.497954        -1.216401        -3.146109
 H        -0.827384        -0.499639        -2.717485
 H        -3.122020        -1.873808        -0.909030
 H        -1.444902        -1.768731         0.925921
 H        -0.439410        -2.259440        -0.504052
 H        -1.082360         1.468649         0.963145
 H         0.247889         1.632201        -0.154962
