19
Iteration:  1545
 C        -3.812405         0.657380        -0.778236
 C        -2.502541         0.180586        -1.488579
 C        -2.263812        -0.914380        -2.565880
 C        -2.106756        -1.175463        -1.070803
 C        -0.698809        -1.282404        -0.494464
 C        -0.441893        -0.123617         0.483816
 O        -0.081883        -0.076155         1.656936
 C        -0.478463         1.203191        -0.424895
 O        -1.410456         1.123597        -1.583644
 H        -4.501231         0.996961        -1.490407
 H        -4.241296        -0.195288        -0.309456
 H        -3.593704         1.453654        -0.074167
 H        -3.083276        -1.385344        -3.098860
 H        -1.388067        -0.564829        -3.181778
 H        -2.949611        -1.727300        -0.667366
 H        -0.517047        -2.207268         0.058881
 H         0.194326        -1.200365        -1.237495
 H        -0.671916         2.214952         0.043503
 H         0.452137         1.343874        -0.980974
