19
Iteration:  1509charge 0 multiplicity 1
 C        -3.676694         0.760373        -0.810714
 C        -2.454606         0.136203        -1.257390
 C        -2.365795        -0.833409        -2.518204
 C        -1.917838        -1.279809        -1.120230
 C        -0.496013        -1.421564        -0.518636
 C        -0.388301        -0.087047         0.316052
 O        -0.422034        -0.004783         1.547778
 C        -0.424215         1.201903        -0.554457
 O        -1.544842         1.105127        -1.406527
 H        -3.957109         1.460761        -1.582690
 H        -4.591360         0.215642        -0.578810
 H        -3.586456         1.373255         0.092797
 H        -3.295410        -1.325409        -2.832997
 H        -1.729728        -0.450568        -3.256104
 H        -2.496558        -2.067368        -0.545184
 H        -0.489661        -2.211831         0.281317
 H         0.379704        -1.532113        -1.213301
 H        -0.518987         2.063629         0.175883
 H         0.592566         1.181265        -1.073764
