19
Iteration:  2732charge 0 multiplicity 1
 C        -3.783733         0.886428        -1.278675
 C        -2.484185         0.144570        -1.472410
 C        -2.311415        -1.006179        -2.481116
 C        -2.145274        -1.194573        -0.957761
 C        -0.745289        -1.406544        -0.410411
 C        -0.255614        -0.070793         0.354056
 O         0.442909        -0.010101         1.387000
 C        -1.062416         1.196941        -0.066906
 O        -1.374378         1.070304        -1.379227
 H        -3.656184         1.824176        -1.846829
 H        -4.643993         0.256941        -1.637140
 H        -4.021017         1.297805        -0.293793
 H        -3.357077        -1.313283        -2.758047
 H        -1.461429        -0.998535        -3.283357
 H        -2.964899        -1.796764        -0.452188
 H        -0.870937        -2.249956         0.232088
 H         0.044371        -1.740375        -1.095747
 H        -1.990117         1.116110         0.640003
 H        -0.522854         2.076056         0.289263
