19
Iteration:  2270charge 0 multiplicity 1
 C        -3.718821         0.756711        -0.977585
 C        -2.465955         0.141706        -1.455975
 C        -2.344655        -0.990160        -2.463297
 C        -2.066775        -1.216556        -0.983695
 C        -0.562368        -1.300583        -0.564320
 C        -0.329757        -0.040495         0.355840
 O        -0.072677        -0.058006         1.568629
 C        -0.774209         1.230804        -0.243490
 O        -1.377504         1.095310        -1.524497
 H        -4.200897         1.348741        -1.763441
 H        -4.443442        -0.012495        -0.718061
 H        -3.546169         1.363534        -0.118285
 H        -3.258877        -1.311506        -2.963690
 H        -1.366097        -0.892063        -3.046851
 H        -2.828175        -1.891598        -0.480206
 H        -0.565830        -2.158125         0.118990
 H        -0.019373        -1.622806        -1.513179
 H        -1.388455         1.755433         0.463874
 H         0.146338         1.880296        -0.532070
