19
Iteration:  1702charge 0 multiplicity 1
 C        -3.984199         0.757939        -1.421110
 C        -2.586562         0.168727        -1.553544
 C        -1.833558        -0.754676        -2.479461
 C        -2.163960        -1.171422        -1.034031
 C        -1.159086        -1.354126         0.088831
 C        -0.340880        -0.122335         0.457690
 O         0.771778        -0.314077         0.965287
 C        -0.912743         1.200476        -0.009605
 O        -1.608178         1.223626        -1.285558
 H        -4.044320         1.210527        -2.403724
 H        -4.695971        -0.007756        -1.132347
 H        -4.048819         1.419329        -0.631411
 H        -2.250768        -1.310280        -3.267046
 H        -0.788311        -0.467889        -2.571403
 H        -3.039496        -1.892216        -0.937864
 H        -1.663611        -1.556588         1.096934
 H        -0.389908        -2.131556        -0.107007
 H        -1.688886         1.639287         0.789143
 H        -0.042580         1.878572        -0.147385
