19
Iteration:   321charge 0 multiplicity 1
 C        -3.823450         0.564149        -1.195589
 C        -2.397915         0.122984        -1.612849
 C        -2.154466        -0.997607        -2.593993
 C        -2.156532        -1.200768        -1.041447
 C        -1.066101        -1.305800         0.049741
 C        -0.348652         0.100196         0.477793
 O         0.765905         0.045050         0.983847
 C        -1.171064         1.313690         0.011588
 O        -1.369149         1.023466        -1.393580
 H        -3.788317         0.938684        -0.131404
 H        -4.346003         1.352674        -1.805809
 H        -4.500003        -0.290512        -1.171151
 H        -3.001814        -1.491987        -3.038761
 H        -1.116756        -1.032497        -3.038187
 H        -3.131979        -1.725816        -0.608575
 H        -1.590646        -1.617232         1.009413
 H        -0.303197        -2.025317        -0.208382
 H        -2.199245         1.395653         0.541796
 H        -0.740891         2.276590         0.005218
