19
Iteration:  4574charge 0 multiplicity 1
 C        -3.935397         0.801854        -1.769332
 C        -2.559343         0.261439        -1.431986
 C        -1.702961        -0.595013        -2.279220
 C        -2.255086        -1.187778        -1.015223
 C        -1.167997        -1.523946         0.005667
 C        -0.295313        -0.286128         0.318077
 O         0.714029        -0.392047         1.007240
 C        -0.727161         1.154015        -0.251159
 O        -1.936504         1.402871        -0.808820
 H        -4.332049         0.106408        -2.559737
 H        -4.574873         0.861820        -0.878519
 H        -3.683143         1.801066        -2.224099
 H        -2.002662        -1.064166        -3.275571
 H        -0.586128        -0.355815        -2.250449
 H        -3.051887        -1.918046        -1.145380
 H        -1.295146        -1.941921         1.012840
 H        -0.564869        -2.309743        -0.317079
 H        -0.600720         1.866453         0.649953
 H         0.142703         1.321066        -0.933706
