19
Iteration:   799
 C        -3.968724         0.507005        -1.055120
 C        -2.524275         0.164973        -1.377810
 C        -2.141154        -0.852154        -2.419461
 C        -2.105168        -1.200575        -0.962377
 C        -0.589721        -1.273584        -0.432536
 C        -0.339165        -0.096903         0.358806
 O         0.004869         0.002142         1.519693
 C        -0.526293         1.152410        -0.489874
 O        -1.565775         1.230608        -1.376373
 H        -4.248610         1.480352        -1.476341
 H        -4.656903        -0.212325        -1.486319
 H        -4.117879         0.519457        -0.025514
 H        -2.850503        -1.426086        -2.961123
 H        -1.192722        -0.774804        -2.894978
 H        -2.713530        -1.957936        -0.480247
 H        -0.483868        -2.228748         0.041853
 H         0.014525        -1.144767        -1.428405
 H        -0.640115         1.898850         0.277561
 H         0.365426         1.350947        -1.147499
