19
Iteration:  1532
 C        -3.784957         0.745601        -0.778286
 C        -2.560027         0.133097        -1.422398
 C        -2.291303        -0.885351        -2.598450
 C        -2.033497        -1.327222        -1.157943
 C        -0.649244        -1.276216        -0.432981
 C        -0.411245        -0.009267         0.418539
 O        -0.203225        -0.046052         1.627145
 C        -0.428219         1.146886        -0.473190
 O        -1.461384         1.139114        -1.493790
 H        -4.448022         1.297164        -1.371293
 H        -4.337028         0.066576        -0.156609
 H        -3.366607         1.449004        -0.034098
 H        -2.995117        -1.485929        -3.177595
 H        -1.387403        -0.678021        -3.151162
 H        -2.664483        -2.142886        -0.686570
 H        -0.261953        -2.226942        -0.017772
 H        -0.092709        -1.031112        -1.391591
 H        -0.379897         2.073178         0.200343
 H         0.626093         0.895573        -0.846026
