19
Iteration:  1093charge 0 multiplicity 1
 C        -3.950177         0.609119        -1.850989
 C        -2.471728         0.239634        -1.488705
 C        -1.817152        -0.797655        -2.373920
 C        -2.280136        -1.221847        -0.889605
 C        -1.301731        -1.339939         0.288355
 C        -0.293037        -0.176441         0.432549
 O         0.919861        -0.164662         0.571664
 C        -0.897522         1.164777         0.163033
 O        -1.669225         1.302532        -1.042038
 H        -4.002545         1.558076        -2.514618
 H        -4.548899        -0.270082        -2.259944
 H        -4.366041         0.789239        -0.846914
 H        -2.362612        -1.325420        -3.192718
 H        -0.719167        -0.825362        -2.429726
 H        -3.259362        -1.730901        -0.881262
 H        -1.866959        -1.352174         1.165952
 H        -0.767336        -2.303262         0.175173
 H        -1.608016         1.508838         0.988517
 H        -0.169901         2.050753         0.102156
