19
Iteration:  1230charge 0 multiplicity 1
 C        -3.850563         0.581575        -1.904087
 C        -2.349413         0.315102        -1.518143
 C        -1.599975        -0.795508        -2.168202
 C        -2.254946        -1.055292        -0.776960
 C        -1.409745        -1.381073         0.586739
 C        -0.335344        -0.297348         0.404412
 O         0.830011        -0.271608         0.051443
 C        -1.126345         1.117424         0.255373
 O        -1.614278         1.430303        -1.058241
 H        -3.927699         1.468208        -2.507146
 H        -4.332174        -0.252446        -2.445701
 H        -4.511950         0.792841        -0.991313
 H        -1.803336        -1.468449        -2.971557
 H        -0.571635        -0.452756        -1.995115
 H        -3.135632        -1.772696        -0.869886
 H        -2.166879        -1.095948         1.287874
 H        -1.265535        -2.410424         0.576750
 H        -1.928775         0.947865         1.012819
 H        -0.487869         1.926782         0.593988
