19
Iteration:  4936
 C        -3.820970         0.729545        -2.058274
 C        -2.506903         0.282300        -1.417329
 C        -1.698805        -0.701272        -2.271415
 C        -2.378458        -1.110066        -0.962175
 C        -1.342899        -1.399130         0.117154
 C        -0.290510        -0.239846         0.314147
 O         0.893925        -0.348049         0.649121
 C        -0.688815         1.120726         0.053019
 O        -2.002632         1.329309        -0.622635
 H        -4.266981        -0.244650        -2.308170
 H        -4.524836         1.299876        -1.310108
 H        -3.631035         1.134934        -3.004741
 H        -2.019021        -0.723322        -3.320615
 H        -0.723421        -0.782172        -2.099575
 H        -3.050149        -1.942140        -1.081195
 H        -1.731916        -1.406364         1.156001
 H        -0.873276        -2.374185        -0.082717
 H        -0.676845         1.599397         1.036083
 H         0.145006         1.586122        -0.540537
