19
Iteration:  1084
 C        -3.904248         0.630824        -1.695617
 C        -2.508341         0.166531        -1.588993
 C        -1.842548        -0.823298        -2.399348
 C        -2.256699        -1.248125        -1.015450
 C        -1.335709        -1.324361         0.287675
 C        -0.257464        -0.144875         0.414365
 O         0.945638        -0.185390         0.695533
 C        -0.929401         1.233623         0.133039
 O        -1.679735         1.289340        -1.071037
 H        -4.094043         1.575708        -2.345969
 H        -4.550691        -0.219340        -2.103033
 H        -4.361756         0.925083        -0.709013
 H        -2.445029        -1.147281        -3.264198
 H        -0.741808        -0.709338        -2.650714
 H        -3.082799        -1.905415        -0.823526
 H        -2.022370        -1.226244         1.109616
 H        -0.769824        -2.297219         0.381215
 H        -1.570064         1.617680         0.958396
 H        -0.001615         1.873498        -0.023666
