19
Iteration:    70
 C        -3.921784         0.694858        -1.102586
 C        -2.507139         0.089549        -1.282541
 C        -2.275622        -1.078247        -2.182370
 C        -1.947973        -1.353832        -0.811872
 C        -0.448898        -1.305224        -0.522708
 C        -0.226958        -0.021499         0.207660
 O        -0.269928         0.150399         1.450926
 C        -0.446086         1.256040        -0.589386
 O        -1.632183         1.140047        -1.397883
 H        -4.572223         0.114165        -0.502681
 H        -3.680585         1.620563        -0.602950
 H        -4.429255         1.009116        -2.085011
 H        -3.281455        -1.509045        -2.497742
 H        -1.579263        -1.064402        -3.067099
 H        -2.496307        -2.137796        -0.281090
 H        -0.185246        -2.085976         0.223752
 H         0.184072        -1.451250        -1.427251
 H        -0.503409         1.995268         0.246093
 H         0.430314         1.522763        -1.280932
