19
Iteration:  4819
 C        -4.021297         0.606721        -1.684048
 C        -2.505455         0.282214        -1.469761
 C        -1.675189        -0.525436        -2.480839
 C        -2.211925        -1.144464        -1.134736
 C        -1.334685        -1.197695         0.022750
 C        -0.195171        -0.185283         0.317224
 O         0.622043        -0.534237         1.168527
 C        -0.453872         1.155269        -0.403654
 O        -1.927769         1.270554        -0.605409
 H        -4.505827        -0.286085        -2.153463
 H        -4.490838         0.778394        -0.653146
 H        -4.362820         1.338485        -2.413457
 H        -2.236478        -0.987982        -3.350584
 H        -0.690694        -0.305950        -2.528661
 H        -3.110513        -1.803953        -1.235463
 H        -1.872295        -1.449073         0.902142
 H        -0.781932        -2.105111        -0.007183
 H        -0.167462         2.095904        -0.030985
 H         0.064190         1.078035        -1.355661
