19
Iteration:  3146
 C        -3.883354         0.724533        -2.073114
 C        -2.439627         0.261185        -1.444760
 C        -1.703276        -0.782517        -2.171231
 C        -2.262899        -1.094630        -0.782847
 C        -1.278944        -1.449489         0.350248
 C        -0.272611        -0.262446         0.338019
 O         0.928411        -0.241366         0.223550
 C        -1.101176         1.114060         0.389115
 O        -1.754668         1.352588        -0.946559
 H        -3.898566         1.840928        -2.163588
 H        -3.979389         0.312742        -3.076994
 H        -4.823453         0.407530        -1.603250
 H        -2.085130        -1.334996        -3.079364
 H        -0.635021        -0.568069        -2.256109
 H        -3.214272        -1.653132        -0.649522
 H        -1.723477        -1.397567         1.322190
 H        -0.626987        -2.366369         0.270721
 H        -1.911920         0.987343         1.152719
 H        -0.381387         1.900482         0.530677
