19
Iteration:  2655charge 0 multiplicity 1
 C        -3.933887         0.680504        -1.721210
 C        -2.481092         0.261835        -1.494632
 C        -2.008684        -0.858902        -2.398303
 C        -2.243796        -1.107476        -0.964405
 C        -1.081028        -1.429216        -0.029843
 C        -0.260930        -0.183435         0.360974
 O         0.862482        -0.126333         0.902907
 C        -1.036269         1.151402         0.208305
 O        -1.573249         1.286196        -1.132077
 H        -3.975954         1.463484        -2.481475
 H        -4.599766        -0.217571        -1.879223
 H        -4.320596         1.115696        -0.780216
 H        -2.739325        -1.290097        -3.136907
 H        -0.974267        -0.952862        -2.847242
 H        -3.167143        -1.677284        -0.660536
 H        -1.495227        -1.786148         0.937831
 H        -0.438473        -2.326956        -0.208088
 H        -1.803394         1.022857         0.983908
 H        -0.361797         1.957825         0.360977
