19
Iteration:  4642charge 0 multiplicity 1
 C        -3.951235         0.678359        -1.584603
 C        -2.482257         0.273736        -1.460585
 C        -1.805381        -0.525156        -2.574828
 C        -2.122169        -1.143019        -1.249179
 C        -1.263791        -1.342556         0.062250
 C        -0.257271        -0.195420         0.279395
 O         0.484996        -0.374391         1.203234
 C        -0.482719         1.117697        -0.427130
 O        -1.824537         1.171509        -0.590867
 H        -4.527058        -0.192750        -1.878549
 H        -4.409094         1.031759        -0.560117
 H        -3.930751         1.455391        -2.286475
 H        -2.549577        -0.942576        -3.321218
 H        -0.770512        -0.391599        -2.871017
 H        -2.879329        -1.977246        -1.198400
 H        -1.974595        -1.145749         0.846252
 H        -0.686866        -2.201699         0.224235
 H        -0.217994         1.934465         0.311880
 H        -0.062614         1.339060        -1.425624
