19
Iteration:  2814
 C        -3.804063         0.694072        -0.891318
 C        -2.425903         0.183419        -1.291579
 C        -2.331115        -0.832368        -2.403973
 C        -1.925870        -1.220817        -0.989248
 C        -0.452097        -1.415316        -0.556205
 C        -0.347378        -0.098608         0.291123
 O        -0.423068        -0.063975         1.485264
 C        -0.458351         1.218138        -0.457804
 O        -1.502073         1.184056        -1.449682
 H        -4.338101         0.771464        -1.847477
 H        -4.417122         0.054132        -0.248762
 H        -3.707330         1.608223        -0.290136
 H        -3.163456        -1.413096        -2.651568
 H        -1.766257        -0.700276        -3.301034
 H        -2.643338        -1.904496        -0.517361
 H        -0.349687        -2.381915         0.115248
 H         0.282139        -1.414818        -1.406737
 H        -0.594072         1.981016         0.258463
 H         0.595742         1.175654        -0.927231
