19
Iteration:  1712
 C        -4.007799         0.720764        -1.448795
 C        -2.551040         0.181817        -1.436731
 C        -1.777331        -0.756698        -2.477503
 C        -2.124845        -1.184214        -1.069800
 C        -1.215304        -1.230162         0.125408
 C        -0.339562        -0.117631         0.418456
 O         0.747430        -0.356211         0.899008
 C        -0.904790         1.246767        -0.013374
 O        -1.590938         1.147238        -1.231767
 H        -4.407375         1.218985        -2.331354
 H        -4.740062        -0.064006        -1.333505
 H        -4.021059         1.472446        -0.754356
 H        -2.323807        -1.248267        -3.233916
 H        -0.851809        -0.278715        -2.799261
 H        -2.806240        -2.073797        -1.146831
 H        -1.957271        -1.346485         0.976865
 H        -0.645831        -2.202475         0.161455
 H        -1.443168         1.648351         0.937387
 H        -0.061966         1.915421        -0.172966
