19
Iteration:  1204
 C        -3.705053         0.678621        -1.978449
 C        -2.304832         0.214325        -1.401611
 C        -1.526970        -0.875346        -2.085509
 C        -2.217158        -1.162671        -0.732055
 C        -1.332136        -1.278607         0.465245
 C        -0.458261        -0.152352         0.314519
 O         0.656904        -0.362862        -0.112921
 C        -1.182084         1.257425         0.392329
 O        -1.682417         1.339921        -0.933745
 H        -3.482202         1.443839        -2.788522
 H        -4.369095        -0.131570        -2.351138
 H        -4.299318         1.292823        -1.247237
 H        -1.941320        -1.407512        -2.953496
 H        -0.451506        -0.749568        -2.057463
 H        -2.956394        -1.909647        -0.816063
 H        -1.946212        -1.261003         1.344869
 H        -0.817301        -2.255509         0.333906
 H        -1.956291         1.135109         1.194998
 H        -0.463729         2.067489         0.527655
