19
Iteration:  1891
 C        -3.950954         0.643442        -1.780510
 C        -2.450643         0.327599        -1.510241
 C        -1.668170        -0.771543        -2.213255
 C        -2.173151        -1.140131        -0.799936
 C        -1.342256        -1.548368         0.422075
 C        -0.392383        -0.286118         0.450709
 O         0.847611        -0.267412         0.354585
 C        -1.030646         1.210834         0.160041
 O        -1.598533         1.446969        -1.180270
 H        -4.036584         1.193968        -2.779078
 H        -4.707395        -0.188973        -1.902910
 H        -4.419805         1.347731        -1.093493
 H        -2.018979        -1.322602        -3.102643
 H        -0.657101        -0.225336        -2.239708
 H        -3.005003        -1.761660        -0.921820
 H        -2.156030        -1.926840         1.261914
 H        -0.821500        -2.474525         0.142341
 H        -1.794316         1.469005         0.936756
 H        -0.068486         1.826893         0.304859
