19
Iteration:  4789
 C        -4.024041         0.750221        -1.728326
 C        -2.504189         0.280410        -1.379883
 C        -1.805085        -0.485260        -2.441598
 C        -2.198848        -1.171501        -1.105644
 C        -1.182072        -1.527359        -0.007492
 C        -0.244339        -0.341726         0.327813
 O         0.643514        -0.265499         1.190413
 C        -0.574437         1.008572        -0.323766
 O        -1.876790         1.363067        -0.765847
 H        -4.571100        -0.201695        -1.973278
 H        -4.529442         1.212771        -0.906218
 H        -4.056321         1.396792        -2.722537
 H        -2.385064        -0.844072        -3.343963
 H        -0.801013        -0.178533        -2.645595
 H        -3.014104        -1.863282        -1.079946
 H        -1.742509        -1.818656         0.873507
 H        -0.463308        -2.340071        -0.226421
 H        -0.360006         1.799612         0.407764
 H         0.231830         1.151063        -1.085896
