19
Iteration:  4566
 C        -3.874903         0.800669        -1.788125
 C        -2.525009         0.263395        -1.358168
 C        -1.691664        -0.629292        -2.338569
 C        -2.273793        -1.230527        -1.017583
 C        -1.207824        -1.519496        -0.052678
 C        -0.304018        -0.252182         0.332419
 O         0.734810        -0.381546         0.973959
 C        -0.701577         1.170032        -0.177913
 O        -1.945201         1.391976        -0.814654
 H        -4.330082         0.093434        -2.493792
 H        -4.621796         0.831893        -0.869566
 H        -3.787699         1.769766        -2.181923
 H        -2.158271        -1.006822        -3.324751
 H        -0.616432        -0.546458        -2.251757
 H        -3.122768        -1.976515        -0.857546
 H        -1.710064        -1.600715         0.949777
 H        -0.501187        -2.351419        -0.363340
 H        -0.809088         1.946068         0.644420
 H         0.148553         1.474459        -0.821177
