19
Iteration:   445charge 0 multiplicity 1
 C        -3.911111         0.493007        -1.912557
 C        -2.536118         0.164985        -1.458996
 C        -1.588793        -0.863247        -2.203701
 C        -2.268350        -1.224807        -0.870857
 C        -1.307579        -1.329815         0.287114
 C        -0.293152        -0.103286         0.273468
 O         0.896653        -0.150364         0.401604
 C        -0.846232         1.286301         0.064448
 O        -1.961999         1.336570        -0.763800
 H        -3.948402         1.414215        -2.519792
 H        -4.318442        -0.348028        -2.481933
 H        -4.558060         0.736401        -1.058867
 H        -1.969679        -1.279616        -3.117462
 H        -0.486800        -0.697213        -2.251662
 H        -2.995826        -1.986638        -0.850249
 H        -1.749601        -1.248712         1.247325
 H        -0.618282        -2.245632         0.303888
 H        -1.060247         1.770138         1.059162
 H        -0.049752         1.867094        -0.527905
