19
Iteration:   577
 C        -3.999274         0.659403        -1.980729
 C        -2.653359         0.133906        -1.451570
 C        -1.666947        -0.841524        -2.171545
 C        -2.275473        -1.228811        -0.816196
 C        -1.164924        -1.362708         0.212943
 C        -0.210651        -0.145247         0.323222
 O         0.990532        -0.166845         0.600759
 C        -0.843612         1.232372        -0.063800
 O        -2.029878         1.286001        -0.839904
 H        -3.808717         1.312323        -2.791899
 H        -4.743304        -0.100012        -2.215199
 H        -4.347231         1.417115        -1.241429
 H        -1.868920        -1.472793        -3.112873
 H        -0.717800        -0.280731        -2.134525
 H        -2.978498        -2.084357        -0.853415
 H        -1.397616        -1.494572         1.261333
 H        -0.343089        -2.170437         0.055661
 H        -1.121447         1.721414         0.880114
 H        -0.091596         1.909386        -0.490004
