19
Iteration:  2098charge 0 multiplicity 1
 C        -3.713871         0.758713        -1.031882
 C        -2.413747         0.170253        -1.491062
 C        -2.383253        -0.985352        -2.533299
 C        -2.096803        -1.237085        -1.053192
 C        -0.700517        -1.427375        -0.412860
 C        -0.435291        -0.079875         0.538082
 O         0.205440        -0.140804         1.537373
 C        -0.855757         1.356634        -0.236636
 O        -1.366710         1.169875        -1.588273
 H        -4.164091         1.466616        -1.845489
 H        -4.451596        -0.061240        -0.832004
 H        -3.722543         1.414907        -0.102504
 H        -3.359300        -1.361697        -2.950592
 H        -1.537309        -1.121137        -3.202586
 H        -2.958128        -1.584920        -0.460643
 H        -0.556106        -2.302925         0.181671
 H         0.039627        -1.366972        -1.227541
 H        -1.464620         1.998753         0.490083
 H         0.129209         1.812714        -0.425549
