19
Iteration:  4916
 C        -3.770847         0.627438        -2.031956
 C        -2.461517         0.281606        -1.384134
 C        -1.745999        -0.682759        -2.292944
 C        -2.363404        -1.143177        -0.977548
 C        -1.303610        -1.393455         0.041382
 C        -0.291516        -0.215319         0.255284
 O         0.811038        -0.436890         0.740747
 C        -0.700864         1.238226        -0.019768
 O        -1.965486         1.387389        -0.610424
 H        -4.164055        -0.163845        -2.702386
 H        -4.543961         0.787917        -1.188759
 H        -3.706538         1.467168        -2.569895
 H        -2.390610        -0.975422        -3.092798
 H        -0.711901        -0.823920        -2.300125
 H        -3.323348        -1.580153        -0.692920
 H        -1.653314        -1.620747         1.128317
 H        -0.693960        -2.288080        -0.028765
 H        -0.681093         1.701383         0.955310
 H         0.174631         1.770393        -0.509587
