19
Iteration:  2658charge 0 multiplicity 1
 C        -3.944775         0.675842        -1.737618
 C        -2.463444         0.258006        -1.497339
 C        -2.036055        -0.856409        -2.400841
 C        -2.251285        -1.129042        -0.927565
 C        -1.073752        -1.405501        -0.067651
 C        -0.250491        -0.184357         0.361859
 O         0.849814        -0.125760         0.914634
 C        -1.047158         1.160735         0.210336
 O        -1.545856         1.261776        -1.122839
 H        -4.019901         1.524016        -2.448714
 H        -4.575807        -0.200443        -1.945696
 H        -4.352752         1.092778        -0.809143
 H        -2.822975        -1.208147        -3.109830
 H        -0.986184        -0.959973        -2.850683
 H        -3.174021        -1.738589        -0.704595
 H        -1.374182        -1.658622         0.950823
 H        -0.424227        -2.332484        -0.311521
 H        -1.778446         1.096786         1.008621
 H        -0.347683         2.017823         0.411771
