19
Iteration:  1957charge 0 multiplicity 1
 C        -3.868508         0.858497        -1.740718
 C        -2.522666         0.177336        -1.531617
 C        -1.961981        -0.890983        -2.446611
 C        -2.247868        -1.192646        -0.971305
 C        -1.189242        -1.423647         0.177244
 C        -0.303317        -0.143380         0.481613
 O         0.921330        -0.116091         0.693391
 C        -1.052782         1.191722         0.219695
 O        -1.593553         1.140735        -1.071459
 H        -3.624854         1.862021        -2.216275
 H        -4.514326         0.180919        -2.348797
 H        -4.386623         0.952951        -0.766968
 H        -2.622941        -1.214047        -3.268637
 H        -0.903940        -0.804241        -2.765007
 H        -3.088685        -1.819337        -0.780066
 H        -1.683817        -1.696866         1.159094
 H        -0.472679        -2.213632        -0.075561
 H        -1.755396         1.585429         0.966789
 H        -0.234826         1.881102         0.038080
