19
Iteration:    96
 C        -3.780719         0.662445        -0.788438
 C        -2.495568         0.025036        -1.316777
 C        -2.341381        -1.074079        -2.373174
 C        -1.923312        -1.263769        -0.906921
 C        -0.397080        -1.350172        -0.405153
 C        -0.403345        -0.002769         0.305022
 O        -0.317821         0.215786         1.494182
 C        -0.496677         1.224204        -0.695138
 O        -1.598933         1.117268        -1.591689
 H        -4.732922         0.046305        -0.975268
 H        -3.638618         1.012774         0.282366
 H        -3.830869         1.611815        -1.302467
 H        -2.992561        -1.658074        -2.966871
 H        -1.500994        -0.785525        -2.959874
 H        -2.585546        -1.877838        -0.204377
 H        -0.245597        -2.083534         0.412833
 H         0.382840        -1.496917        -1.168135
 H        -0.476400         2.079312         0.030523
 H         0.497874         1.212652        -1.263925
