19
Iteration:  2860charge 0 multiplicity 1
 C        -3.636196         0.671040        -0.692130
 C        -2.397300         0.214379        -1.355924
 C        -2.410568        -0.995727        -2.347830
 C        -1.869136        -1.206088        -0.913046
 C        -0.439883        -1.179229        -0.683346
 C        -0.400264        -0.049911         0.310034
 O        -0.769792        -0.149283         1.478376
 C        -0.338591         1.226619        -0.535072
 O        -1.386805         1.129496        -1.532127
 H        -4.128684         1.484265        -1.213499
 H        -4.434733        -0.119159        -0.646788
 H        -3.388221         0.824003         0.361061
 H        -3.336312        -1.506213        -2.730277
 H        -1.627811        -0.844894        -3.167765
 H        -2.511741        -1.814494        -0.218032
 H        -0.154284        -2.148742        -0.128889
 H         0.033403        -1.082780        -1.661052
 H        -0.508713         2.080704         0.141463
 H         0.616752         1.305416        -1.108237
