19
Iteration:  1411charge 0 multiplicity 1
 C        -3.629318         0.995612        -0.964535
 C        -2.485358         0.096309        -1.346782
 C        -2.502213        -0.907525        -2.360424
 C        -1.874707        -1.235469        -1.061727
 C        -0.445182        -1.303013        -0.526582
 C        -0.431320        -0.087212         0.355912
 O        -0.121273        -0.104894         1.525716
 C        -0.879343         1.177826        -0.287061
 O        -1.335029         0.939432        -1.624100
 H        -3.501644         1.997920        -1.317365
 H        -4.624478         0.775075        -1.294114
 H        -3.765639         1.101458         0.092464
 H        -3.398512        -1.365077        -2.660327
 H        -1.870124        -0.698614        -3.218002
 H        -2.593529        -1.913790        -0.591038
 H        -0.264441        -2.221201         0.183373
 H         0.347837        -1.332488        -1.353841
 H        -1.758139         1.497271         0.365321
 H        -0.125056         1.989228        -0.181210
