19
Iteration:  1333
 C        -4.004651         0.724978        -1.589370
 C        -2.570161         0.238388        -1.404193
 C        -2.140545        -0.821096        -2.326992
 C        -2.213593        -1.158474        -0.893318
 C        -0.904494        -1.418596        -0.156465
 C        -0.207293        -0.167894         0.372465
 O         0.591958        -0.262901         1.293438
 C        -0.738828         1.263565        -0.154979
 O        -1.573914         1.275502        -1.352705
 H        -4.181737         1.042594        -2.634813
 H        -4.599718        -0.187654        -1.608408
 H        -4.472775         1.362325        -0.908153
 H        -2.796857        -1.275711        -3.098761
 H        -1.131590        -0.736292        -2.699235
 H        -3.045495        -1.718511        -0.547880
 H        -1.205830        -2.098830         0.740833
 H        -0.257012        -2.124716        -0.783387
 H        -1.236742         1.695457         0.754062
 H         0.185365         1.946191        -0.266833
