19
Iteration:  3510
 C        -3.874874         0.817714        -1.001922
 C        -2.532750         0.185342        -1.400873
 C        -2.227734        -0.871041        -2.433769
 C        -1.984032        -1.205993        -1.039812
 C        -0.540180        -1.315834        -0.556694
 C        -0.392684        -0.112761         0.350629
 O        -0.140695        -0.385141         1.478778
 C        -0.634356         1.271348        -0.229716
 O        -1.442076         1.215500        -1.463431
 H        -4.040781         1.693496        -1.621592
 H        -4.722918         0.057374        -0.887628
 H        -3.598379         1.203399        -0.040172
 H        -3.007001        -1.409534        -2.974183
 H        -1.244540        -0.570897        -2.928029
 H        -2.623295        -1.865560        -0.505943
 H        -0.416421        -2.277004        -0.017489
 H         0.279913        -1.068867        -1.335915
 H        -1.102643         1.900573         0.555371
 H         0.204940         1.848875        -0.583103
