19
Iteration:  3073
 C        -3.784646         0.802175        -1.578920
 C        -2.415996         0.201046        -1.554340
 C        -1.913442        -0.879058        -2.405775
 C        -2.221271        -1.143871        -0.971679
 C        -1.188059        -1.429249         0.230715
 C        -0.370485        -0.093292         0.392028
 O         0.842845        -0.072570         0.574914
 C        -1.310696         1.110220         0.299113
 O        -1.372054         1.134410        -1.192487
 H        -3.847178         1.542382        -2.437081
 H        -4.576266         0.128694        -1.875494
 H        -4.273209         1.157746        -0.622412
 H        -2.562867        -1.255790        -3.231048
 H        -0.882757        -0.709633        -2.682325
 H        -3.224032        -1.698080        -0.711700
 H        -1.861434        -1.418395         1.152477
 H        -0.695430        -2.364729         0.117082
 H        -2.246795         0.867114         0.734811
 H        -0.694362         1.980958         0.644693
