19
Iteration:  4773charge 0 multiplicity 1
 C        -3.881584         0.790145        -1.716988
 C        -2.575806         0.270407        -1.413162
 C        -1.895438        -0.568621        -2.431464
 C        -2.135707        -1.197905        -1.080149
 C        -1.062622        -1.614943        -0.056279
 C        -0.346971        -0.293087         0.446610
 O         0.636011        -0.271285         1.133109
 C        -0.623581         1.061666        -0.240072
 O        -1.921999         1.429971        -0.829669
 H        -4.641238         0.163500        -2.119661
 H        -4.200866         1.400704        -0.770986
 H        -3.705360         1.432471        -2.484380
 H        -2.515676        -0.874199        -3.208615
 H        -0.807399        -0.426524        -2.699725
 H        -3.020489        -1.890381        -1.215414
 H        -1.440492        -2.127044         0.859458
 H        -0.489433        -2.451383        -0.447999
 H        -0.237151         1.855044         0.413439
 H         0.069105         1.044439        -1.100677
