19
Iteration:  1346charge 0 multiplicity 1
 C        -3.971238         0.618023        -1.467898
 C        -2.487614         0.249915        -1.469391
 C        -2.204563        -0.866413        -2.461173
 C        -2.216407        -1.140644        -0.887387
 C        -0.910153        -1.358253        -0.189949
 C        -0.329279        -0.126062         0.464458
 O         0.520171        -0.298202         1.310706
 C        -0.730175         1.291161        -0.142080
 O        -1.483588         1.257587        -1.390346
 H        -4.169928         1.209501        -2.349234
 H        -4.619551        -0.208560        -1.237491
 H        -4.008616         1.328010        -0.625484
 H        -3.045403        -1.195558        -3.018605
 H        -1.212491        -0.810656        -2.902954
 H        -3.057627        -1.634182        -0.419028
 H        -0.891249        -2.191194         0.625863
 H         0.002593        -1.537887        -0.886873
 H        -1.340834         1.861869         0.578735
 H         0.138954         1.846531        -0.487367
