19
Iteration:    24charge 0 multiplicity 1
 C        -4.004967         0.559918        -1.172505
 C        -2.563783         0.163070        -1.555173
 C        -2.332302        -1.172713        -2.278816
 C        -2.099408        -1.057124        -0.780378
 C        -0.611390        -1.183880        -0.470006
 C        -0.281428        -0.041928         0.456893
 O         0.221059        -0.051158         1.585545
 C        -0.604735         1.244277        -0.408234
 O        -1.501076         1.207879        -1.610044
 H        -4.091346         0.498210        -0.117435
 H        -4.309388         1.503888        -1.532532
 H        -4.729137        -0.192098        -1.617460
 H        -3.168379        -1.741522        -2.666207
 H        -1.385908        -1.439991        -2.856765
 H        -2.670934        -1.582296        -0.124018
 H        -0.443237        -2.203173        -0.180486
 H        -0.035275        -1.006885        -1.404873
 H        -0.961648         1.992935         0.299300
 H         0.429087         1.566588        -0.744262
