19
Iteration:  3963charge 0 multiplicity 1
 C        -3.789862         1.022471        -1.480975
 C        -2.435365         0.292266        -1.578085
 C        -1.959993        -0.854885        -2.508080
 C        -2.255894        -1.139516        -1.086589
 C        -1.012878        -1.571327        -0.105323
 C        -0.406714        -0.249510         0.515906
 O         0.770767        -0.099856         0.851851
 C        -1.301194         1.021405         0.279718
 O        -1.410827         1.156510        -1.149211
 H        -4.694226         0.458065        -1.850760
 H        -4.025552         1.249147        -0.414615
 H        -3.755405         2.128813        -1.956401
 H        -2.615414        -1.320731        -3.192024
 H        -0.879222        -0.655611        -2.747991
 H        -3.291129        -1.651621        -0.816875
 H        -1.307191        -2.132284         0.795372
 H        -0.217470        -2.029520        -0.762130
 H        -2.218919         0.934170         0.870681
 H        -0.608936         1.892998         0.544285
