19
Iteration:  2965charge 0 multiplicity 1
 C        -3.886078         0.732338        -1.265684
 C        -2.522460         0.193590        -1.463749
 C        -2.277131        -0.956225        -2.441472
 C        -2.117339        -1.174709        -0.961012
 C        -0.658804        -1.257331        -0.427959
 C        -0.329350        -0.129109         0.387847
 O         0.157291        -0.175217         1.519736
 C        -0.734952         1.246021        -0.215907
 O        -1.424212         1.139024        -1.431214
 H        -4.200086         1.618888        -1.883894
 H        -4.495469        -0.174656        -1.288556
 H        -3.856993         1.224690        -0.257110
 H        -3.126690        -1.351249        -2.948571
 H        -1.387382        -0.814926        -3.102559
 H        -2.837238        -1.734238        -0.265765
 H        -0.465899        -2.251817         0.122862
 H         0.000667        -1.290068        -1.287993
 H        -1.170729         1.814258         0.682142
 H         0.300660         1.713512        -0.367775
