19
Iteration:   453charge 0 multiplicity 1
 C        -3.937429         0.524946        -1.905085
 C        -2.542076         0.125365        -1.460747
 C        -1.540286        -0.732286        -2.187998
 C        -2.208372        -1.212586        -0.885523
 C        -1.273778        -1.327197         0.369454
 C        -0.353310        -0.139022         0.328787
 O         0.890536        -0.147120         0.348549
 C        -0.820022         1.212111         0.019460
 O        -2.004775         1.302006        -0.805495
 H        -3.852389         1.280419        -2.721649
 H        -4.550179        -0.243585        -2.353569
 H        -4.496332         0.796147        -1.053288
 H        -1.885655        -1.317178        -2.987655
 H        -0.520888        -0.435641        -2.184141
 H        -2.987036        -1.983670        -0.859735
 H        -1.860629        -1.234561         1.344381
 H        -0.808135        -2.260457         0.413090
 H        -0.959034         1.824838         0.929282
 H         0.034904         1.716889        -0.405020
