19
Iteration:  3290charge 0 multiplicity 1
 C        -4.029571         0.526502        -1.752884
 C        -2.530538         0.257324        -1.470435
 C        -1.739805        -0.542097        -2.415820
 C        -2.191340        -1.082537        -1.091441
 C        -1.214618        -1.304469         0.007256
 C        -0.272080        -0.200416         0.378936
 O         0.770871        -0.389303         1.016054
 C        -0.591755         1.128526        -0.292837
 O        -1.960708         1.302381        -0.623193
 H        -4.109668         0.980840        -2.756639
 H        -4.649316        -0.318452        -1.599300
 H        -4.300627         1.378461        -1.101367
 H        -2.261365        -0.909487        -3.252749
 H        -0.675828        -0.503606        -2.675424
 H        -2.914299        -1.988313        -1.138051
 H        -1.911838        -1.486727         0.867708
 H        -0.677109        -2.251438        -0.096862
 H        -0.468082         1.879362         0.487452
 H         0.024812         1.250676        -1.192320
