19
Iteration:  2532charge 0 multiplicity 1
 C        -3.820812         0.870913        -2.034189
 C        -2.567629         0.178338        -1.441851
 C        -1.689802        -0.891628        -2.039691
 C        -2.417020        -1.137125        -0.736918
 C        -1.154470        -1.444705         0.163747
 C        -0.259067        -0.189304         0.274142
 O         0.927398        -0.166789         0.339039
 C        -1.128035         1.176990         0.279960
 O        -1.746610         1.213423        -0.945222
 H        -3.677208         1.887796        -2.492363
 H        -4.094870         0.291621        -2.943934
 H        -4.634823         0.713302        -1.287859
 H        -1.767710        -1.386689        -2.942167
 H        -0.698585        -0.578382        -1.786115
 H        -3.309605        -1.738631        -0.864968
 H        -1.437702        -1.586891         1.285665
 H        -0.613654        -2.282313        -0.157209
 H        -1.726401         1.258161         1.168182
 H        -0.299477         1.947193         0.284833
