19
Iteration:  1681
 C        -3.916388         0.786198        -1.504056
 C        -2.440829         0.288402        -1.528970
 C        -2.018374        -0.932592        -2.424666
 C        -2.254727        -1.142976        -0.950461
 C        -1.028605        -1.522582        -0.055297
 C        -0.283534        -0.224322         0.370527
 O         0.703864        -0.113371         1.095091
 C        -0.978308         1.167104        -0.012872
 O        -1.548811         1.325028        -1.286581
 H        -4.130301         1.530645        -2.317896
 H        -4.547343        -0.112647        -1.389639
 H        -4.002197         1.237438        -0.514995
 H        -2.771559        -1.240138        -3.089772
 H        -0.990966        -0.807974        -2.779340
 H        -3.148088        -1.781418        -0.690655
 H        -1.384213        -2.080034         0.867295
 H        -0.396790        -2.189418        -0.618202
 H        -1.707761         1.163987         0.895442
 H        -0.155421         1.904111         0.123260
