19
Iteration:   571
 C        -3.988738         0.686783        -2.002982
 C        -2.684466         0.093854        -1.476834
 C        -1.620176        -0.781681        -2.141906
 C        -2.222397        -1.245897        -0.771514
 C        -1.145461        -1.349344         0.251935
 C        -0.221425        -0.138243         0.305322
 O         0.989717        -0.219966         0.575304
 C        -0.859572         1.260142        -0.102769
 O        -2.057753         1.260655        -0.805830
 H        -3.924590         1.260211        -3.014461
 H        -4.906808         0.073115        -2.140591
 H        -4.383256         1.370728        -1.259885
 H        -1.742927        -1.289720        -3.021822
 H        -0.667255        -0.250761        -2.094964
 H        -2.957912        -2.051015        -0.925875
 H        -1.503123        -1.565344         1.322727
 H        -0.539473        -2.177503         0.044069
 H        -1.103564         1.804987         0.850856
 H        -0.091926         1.896055        -0.645452
