19
Iteration:  4991
 C        -3.886678         0.623915        -1.986353
 C        -2.482188         0.228109        -1.462460
 C        -1.467077        -0.529076        -2.225918
 C        -2.145877        -1.162038        -1.051669
 C        -1.571969        -1.243575         0.312937
 C        -0.283399        -0.187876         0.330311
 O         0.842541        -0.544940         0.470061
 C        -0.702463         1.174257        -0.073090
 O        -2.057914         1.242260        -0.505098
 H        -4.680016        -0.180325        -1.972329
 H        -4.296153         1.603514        -1.414698
 H        -3.744199         1.003844        -2.963832
 H        -1.722069        -0.781779        -3.200938
 H        -0.573781        -0.072240        -2.076869
 H        -2.907107        -1.813068        -1.468139
 H        -2.240199        -0.875012         1.073264
 H        -1.301231        -2.196314         0.732067
 H        -0.452997         1.824315         0.759305
 H         0.021661         1.502714        -0.864627
