19
Iteration:  3459charge 0 multiplicity 1
 C        -3.699371         0.858965        -0.984806
 C        -2.404146         0.204956        -1.564663
 C        -2.503802        -0.880357        -2.656714
 C        -2.057481        -1.245291        -1.178474
 C        -0.565984        -1.298177        -0.512284
 C        -0.484988        -0.150798         0.542305
 O         0.220157        -0.117767         1.554187
 C        -1.034422         1.079904        -0.017539
 O        -1.234477         1.106337        -1.488697
 H        -3.529564         1.950842        -0.860356
 H        -4.438130         0.532263        -1.677154
 H        -3.973938         0.511152         0.020449
 H        -3.575682        -1.181857        -2.682863
 H        -2.011389        -0.967507        -3.723184
 H        -2.886693        -1.757326        -0.626456
 H        -0.172176        -2.212886        -0.090010
 H         0.103039        -0.939941        -1.255894
 H        -1.901743         1.566620         0.427008
 H        -0.192354         1.877278         0.049025
