19
Iteration:  4540
 C        -3.859833         0.665718        -1.845408
 C        -2.461525         0.304613        -1.545343
 C        -1.831383        -0.702912        -2.521909
 C        -2.285086        -1.174297        -1.036526
 C        -1.308174        -1.333281         0.113815
 C        -0.272576        -0.201089         0.323805
 O         0.795918        -0.414590         0.864240
 C        -0.690211         1.166320         0.021967
 O        -1.867596         1.326325        -0.649415
 H        -4.311992        -0.158710        -2.470033
 H        -4.479723         0.797154        -1.001868
 H        -3.962207         1.685203        -2.489212
 H        -2.472644        -1.211580        -3.231243
 H        -0.704563        -0.597685        -2.769449
 H        -3.088672        -1.858319        -0.986955
 H        -1.743651        -1.287110         1.142470
 H        -0.671828        -2.082363        -0.165517
 H        -0.945796         1.752041         0.970116
 H         0.219479         1.702284        -0.388958
