19
Iteration:  1853charge 0 multiplicity 1
 C        -3.747423         0.702494        -1.970336
 C        -2.478856         0.142389        -1.478869
 C        -1.797224        -0.972276        -2.248947
 C        -2.389219        -1.143967        -0.828225
 C        -1.337183        -1.222646         0.230343
 C        -0.229859        -0.107701         0.295657
 O         0.998827        -0.350522         0.397799
 C        -0.989572         1.226905         0.320199
 O        -1.821036         1.330081        -0.900182
 H        -3.399027         1.395374        -2.759740
 H        -4.295610        -0.106991        -2.513061
 H        -4.235896         1.314544        -1.147425
 H        -2.396796        -1.226892        -3.117196
 H        -0.753483        -0.818232        -2.413657
 H        -3.347869        -1.704693        -0.596753
 H        -1.708516        -1.223284         1.222135
 H        -0.722774        -2.161775         0.115551
 H        -1.647216         1.174747         1.217469
 H        -0.509598         2.211630         0.341408
