19
Iteration:   521
 C        -3.846311         0.228701        -2.012962
 C        -2.466614         0.301224        -1.373959
 C        -1.503930        -0.555147        -2.260518
 C        -2.210323        -1.165741        -0.977198
 C        -1.559835        -1.093561         0.364128
 C        -0.281003        -0.133801         0.282477
 O         0.907433        -0.323221         0.359424
 C        -0.659759         1.260185        -0.200627
 O        -2.118748         1.170669        -0.337872
 H        -3.787493         0.281247        -3.080693
 H        -4.491161        -0.630780        -1.831266
 H        -4.560887         0.973275        -1.667171
 H        -1.935522        -0.763071        -3.264964
 H        -0.404645        -0.617006        -2.308042
 H        -2.951481        -1.885191        -1.170732
 H        -2.166619        -0.595882         1.100918
 H        -1.075047        -1.982650         0.895973
 H        -0.485650         2.090069         0.485732
 H        -0.243534         1.499700        -1.187689
