19
Iteration:  1885charge 0 multiplicity 1
 C        -3.958914         0.687775        -1.840410
 C        -2.469986         0.326096        -1.494183
 C        -1.628823        -0.771662        -2.149796
 C        -2.214381        -1.158577        -0.790239
 C        -1.335716        -1.577717         0.384893
 C        -0.378673        -0.293110         0.376715
 O         0.810213        -0.253283         0.352546
 C        -1.023312         1.248401         0.179901
 O        -1.605864         1.410025        -1.142477
 H        -3.926913         1.197853        -2.785168
 H        -4.575972        -0.201188        -1.897756
 H        -4.501948         1.323472        -1.110800
 H        -1.974746        -1.274459        -3.042761
 H        -0.657384        -0.392717        -2.366495
 H        -3.152387        -1.782081        -0.896759
 H        -1.799927        -1.624770         1.323115
 H        -0.622813        -2.426742         0.247158
 H        -1.659710         1.452532         1.071477
 H        -0.084319         1.724171         0.235495
