19
Iteration:  4941
 C        -3.835693         0.738989        -2.053988
 C        -2.546632         0.284585        -1.411872
 C        -1.651498        -0.671039        -2.260544
 C        -2.325462        -1.105080        -0.975633
 C        -1.356343        -1.388855         0.134914
 C        -0.288073        -0.275368         0.326471
 O         0.925533        -0.365507         0.637608
 C        -0.728901         1.130406         0.017331
 O        -2.016986         1.316398        -0.628795
 H        -4.471823        -0.158857        -2.233135
 H        -4.416402         1.398359        -1.494891
 H        -3.674690         1.285658        -3.065310
 H        -2.148717        -0.907584        -3.208793
 H        -0.475118        -0.769023        -2.096540
 H        -3.080185        -1.924459        -0.986070
 H        -1.790963        -1.534140         1.174351
 H        -0.895010        -2.390390         0.078053
 H        -0.727124         1.628626         1.011185
 H         0.116142         1.627422        -0.472409
