19
Iteration:  3496charge 0 multiplicity 1
 C        -3.774503         0.833718        -0.932051
 C        -2.461085         0.212595        -1.474045
 C        -2.265798        -0.854718        -2.531947
 C        -2.023274        -1.177096        -0.986683
 C        -0.547994        -1.263656        -0.603703
 C        -0.355697        -0.133351         0.349368
 O        -0.075800        -0.322625         1.532140
 C        -0.801639         1.270190        -0.182404
 O        -1.387583         1.089058        -1.474849
 H        -4.066130         1.750051        -1.484629
 H        -4.660262         0.227245        -1.282016
 H        -3.941176         0.881436         0.197517
 H        -3.149092        -1.231213        -3.009834
 H        -1.451714        -0.811292        -3.167439
 H        -2.763651        -1.813340        -0.505425
 H        -0.259658        -2.066500         0.108695
 H        -0.030025        -1.447784        -1.566338
 H        -1.487049         1.833664         0.551297
 H         0.159462         1.787401        -0.258732
