19
Iteration:  3074
 C        -3.775204         0.805744        -1.576120
 C        -2.420244         0.201000        -1.565361
 C        -1.908623        -0.878814        -2.399857
 C        -2.226141        -1.152858        -0.973603
 C        -1.194661        -1.425833         0.230716
 C        -0.377683        -0.096667         0.397023
 O         0.845603        -0.063532         0.563013
 C        -1.304573         1.103538         0.311505
 O        -1.368616         1.136232        -1.190007
 H        -3.870372         1.571730        -2.411072
 H        -4.568265         0.093105        -1.910581
 H        -4.300249         1.137554        -0.634973
 H        -2.537396        -1.291506        -3.228441
 H        -0.899331        -0.706741        -2.697352
 H        -3.218033        -1.672716        -0.705503
 H        -1.886770        -1.415153         1.160134
 H        -0.722948        -2.372948         0.128825
 H        -2.248330         0.851788         0.744359
 H        -0.680777         2.004108         0.636327
