19
Iteration:  1573
 C        -3.822629         0.702442        -1.037781
 C        -2.415645         0.215278        -1.472941
 C        -2.437656        -0.883734        -2.442807
 C        -2.074765        -1.180284        -0.958102
 C        -0.608463        -1.393762        -0.377804
 C        -0.339134        -0.126856         0.325854
 O         0.029795        -0.130660         1.485096
 C        -0.746548         1.248919        -0.237058
 O        -1.290450         1.175310        -1.584911
 H        -4.339313         1.104291        -1.991641
 H        -4.364424        -0.259862        -0.782268
 H        -3.791620         1.386733        -0.147465
 H        -3.356305        -1.370666        -2.767334
 H        -1.772908        -0.794720        -3.263964
 H        -2.936478        -1.694079        -0.446503
 H        -0.563932        -2.045438         0.532465
 H         0.147563        -1.659243        -1.046086
 H        -1.463206         1.732423         0.415537
 H         0.133525         1.936494        -0.342255
