19
Iteration:  1057charge 0 multiplicity 1
 C        -3.974996         0.683340        -1.383635
 C        -2.565409         0.112628        -1.512525
 C        -1.850112        -0.812173        -2.494773
 C        -2.033733        -1.192759        -1.075870
 C        -1.190161        -1.200376         0.137872
 C        -0.296053        -0.087689         0.306748
 O         0.704847        -0.320324         1.014369
 C        -0.891241         1.248302        -0.080970
 O        -1.633703         1.212143        -1.244939
 H        -4.125702         1.519248        -2.008296
 H        -4.756691         0.013914        -1.646946
 H        -4.153078         1.026211        -0.375436
 H        -2.340444        -1.520859        -3.117859
 H        -0.901728        -0.550024        -2.901352
 H        -2.815138        -1.919735        -0.757096
 H        -1.860802        -1.231972         1.012859
 H        -0.544923        -2.033683         0.246142
 H        -1.703818         1.456947         0.707156
 H        -0.119112         1.984786        -0.084819
