19
Iteration:  3497charge 0 multiplicity 1
 C        -3.783539         0.835198        -0.934528
 C        -2.465417         0.213764        -1.473953
 C        -2.261517        -0.855281        -2.525222
 C        -2.016273        -1.182100        -0.978235
 C        -0.548750        -1.261419        -0.592937
 C        -0.359822        -0.133060         0.339887
 O        -0.081786        -0.331779         1.527512
 C        -0.786510         1.282816        -0.185323
 O        -1.396391         1.093362        -1.476576
 H        -4.073278         1.743389        -1.481988
 H        -4.699033         0.214683        -1.253866
 H        -3.926494         0.920183         0.179493
 H        -3.116955        -1.244677        -3.037695
 H        -1.422367        -0.804111        -3.175774
 H        -2.734292        -1.821017        -0.519503
 H        -0.264674        -2.095552         0.094127
 H         0.001951        -1.449367        -1.570278
 H        -1.450346         1.825652         0.572467
 H         0.173769         1.751667        -0.255925
