19
Iteration:  4506charge 0 multiplicity 1
 C        -3.958608         0.665267        -1.900486
 C        -2.562322         0.244501        -1.430201
 C        -1.634380        -0.526742        -2.358714
 C        -2.232208        -1.204931        -1.003184
 C        -1.327818        -1.287048         0.222152
 C        -0.233761        -0.296759         0.332405
 O         0.906725        -0.538981         0.724303
 C        -0.789764         1.134539         0.029424
 O        -1.939059         1.428929        -0.809194
 H        -4.571262        -0.160627        -2.346705
 H        -4.554092         1.165957        -1.188948
 H        -3.991710         1.372679        -2.847639
 H        -1.807148        -1.032587        -3.280713
 H        -0.577733        -0.225627        -2.383983
 H        -2.959957        -1.979371        -1.143263
 H        -2.047528        -1.197691         1.070316
 H        -1.029755        -2.280327         0.418079
 H        -0.954802         1.705817         0.995468
 H         0.066254         1.673765        -0.465726
