19
Iteration:  2056
 C        -3.910551         0.826364        -1.354960
 C        -2.519935         0.184734        -1.377651
 C        -2.183071        -0.813557        -2.486064
 C        -2.157270        -1.209671        -0.967924
 C        -0.830663        -1.435565        -0.231926
 C        -0.254022        -0.130628         0.352312
 O         0.443496        -0.104067         1.347367
 C        -0.928168         1.224587        -0.133736
 O        -1.421852         1.068846        -1.413335
 H        -4.059432         1.321742        -2.355807
 H        -4.615870         0.080221        -0.982463
 H        -3.818514         1.692586        -0.629104
 H        -2.990259        -1.263605        -3.055535
 H        -1.232020        -0.500637        -2.834982
 H        -3.025640        -1.829251        -0.648408
 H        -0.913490        -2.191930         0.559292
 H        -0.136507        -1.975535        -0.868339
 H        -1.739233         1.494295         0.586819
 H        -0.219501         2.010110        -0.156484
