19
Iteration:  2266charge 0 multiplicity 1
 C        -3.671074         0.750005        -0.958876
 C        -2.476766         0.109551        -1.482294
 C        -2.356799        -0.989257        -2.490170
 C        -2.050022        -1.244753        -0.980629
 C        -0.552983        -1.308489        -0.572813
 C        -0.302117        -0.026423         0.368651
 O        -0.105162        -0.067804         1.583118
 C        -0.750310         1.247996        -0.252512
 O        -1.423203         1.116842        -1.521173
 H        -4.078763         1.371821        -1.778021
 H        -4.451900         0.028091        -0.525385
 H        -3.407204         1.509846        -0.153724
 H        -3.279967        -1.290681        -3.016935
 H        -1.424893        -0.988645        -3.049892
 H        -2.847185        -1.779144        -0.563145
 H        -0.644487        -2.107726         0.173972
 H         0.003380        -1.570326        -1.413864
 H        -1.335917         1.764288         0.577668
 H         0.015952         1.845586        -0.655942
