19
Iteration:  2590
 C        -3.932103         0.513459        -1.722719
 C        -2.474577         0.186613        -1.517883
 C        -1.664107        -0.729586        -2.432829
 C        -2.214588        -1.178751        -1.028846
 C        -1.386319        -1.244990         0.290895
 C        -0.336481        -0.134781         0.441205
 O         0.851332        -0.298920         0.430540
 C        -0.960348         1.253189         0.327156
 O        -1.626376         1.275365        -0.992437
 H        -4.178148         1.147731        -2.565609
 H        -4.544494        -0.426740        -1.641081
 H        -4.240445         1.157387        -0.875298
 H        -2.341889        -1.109973        -3.273976
 H        -0.556585        -0.574956        -2.587864
 H        -3.085902        -1.902069        -1.052263
 H        -2.163956        -1.148320         1.041248
 H        -0.853730        -2.248150         0.373464
 H        -1.633617         1.563712         1.143642
 H        -0.176363         1.969126         0.288373
