19
Iteration:  3379
 C        -4.003528         0.618286        -1.475211
 C        -2.515798         0.336022        -1.493070
 C        -2.259533        -0.835541        -2.578577
 C        -2.130033        -1.131683        -1.091604
 C        -0.898464        -1.377612        -0.254911
 C        -0.260439        -0.213903         0.472077
 O         0.541099        -0.270943         1.377854
 C        -0.660884         1.166992        -0.059842
 O        -1.577854         1.371984        -1.149615
 H        -4.274671         1.641375        -1.444107
 H        -4.460085         0.237917        -2.419747
 H        -4.409280         0.058857        -0.680093
 H        -3.122802        -1.112377        -3.247739
 H        -1.407026        -0.995336        -3.193694
 H        -2.932779        -1.682655        -0.620170
 H        -1.028133        -2.243827         0.413872
 H        -0.028641        -1.626138        -0.903712
 H        -0.989463         1.703474         0.840771
 H         0.173982         1.691196        -0.449751
