19
Iteration:  3176
 C        -3.857080         0.570500        -2.099931
 C        -2.425229         0.274877        -1.402078
 C        -1.647312        -0.772410        -2.145023
 C        -2.345964        -1.112934        -0.819811
 C        -1.358806        -1.278044         0.226860
 C        -0.261674        -0.226281         0.223933
 O         0.981253        -0.352842         0.328091
 C        -0.893485         1.140650         0.278928
 O        -1.944556         1.396013        -0.760973
 H        -3.980165         1.640673        -2.307932
 H        -3.869837         0.022750        -3.124547
 H        -4.838072         0.460486        -1.609767
 H        -2.151319        -1.033227        -3.077673
 H        -0.554040        -0.852262        -2.239023
 H        -3.218788        -1.636239        -0.808198
 H        -1.837033        -1.294368         1.248536
 H        -0.802492        -2.290153         0.225816
 H        -1.454333         1.217073         1.263201
 H        -0.213417         1.953621         0.353638
