19
Iteration:  2730
 C        -3.792774         0.902407        -1.299485
 C        -2.479459         0.141942        -1.488120
 C        -2.307150        -1.016454        -2.473064
 C        -2.149264        -1.192135        -0.958290
 C        -0.738766        -1.403180        -0.410636
 C        -0.265589        -0.068278         0.352933
 O         0.459935        -0.005753         1.371537
 C        -1.048795         1.180761        -0.042540
 O        -1.392938         1.071885        -1.360174
 H        -3.585708         1.833157        -1.808771
 H        -4.671732         0.309135        -1.669653
 H        -4.051149         1.295727        -0.303878
 H        -3.307063        -1.358850        -2.802001
 H        -1.469794        -1.005083        -3.231612
 H        -2.959904        -1.761408        -0.422642
 H        -0.863704        -2.308581         0.245491
 H         0.012974        -1.743853        -1.063410
 H        -2.054380         1.086396         0.610990
 H        -0.542367         2.088476         0.253986
