19
Iteration:  2184
 C        -3.712487         0.723722        -0.884655
 C        -2.404995         0.110902        -1.376199
 C        -2.458561        -1.042798        -2.337548
 C        -1.958046        -1.267486        -1.015089
 C        -0.489045        -1.242721        -0.620955
 C        -0.451759        -0.011328         0.300856
 O        -0.373524        -0.143198         1.522836
 C        -0.548281         1.354081        -0.342941
 O        -1.328996         1.138874        -1.544461
 H        -3.919311         1.705651        -1.334883
 H        -4.576079         0.116427        -1.074708
 H        -3.525495         0.762402         0.169611
 H        -3.407268        -1.344360        -2.760452
 H        -1.772744        -1.234930        -3.209003
 H        -2.567266        -1.722617        -0.196583
 H        -0.393369        -2.103050         0.039532
 H         0.204715        -1.385876        -1.525221
 H        -0.866353         2.137161         0.372670
 H         0.505348         1.677607        -0.657288
