19
Iteration:  1765charge 0 multiplicity 1
 C        -3.931813         0.563283        -1.746188
 C        -2.468719         0.288989        -1.572163
 C        -1.764703        -0.831680        -2.302291
 C        -2.206024        -1.037143        -0.877951
 C        -1.325683        -1.320561         0.312473
 C        -0.299237        -0.208174         0.326536
 O         0.855543        -0.381417         0.620141
 C        -0.899120         1.230422         0.104370
 O        -1.698178         1.383931        -1.076027
 H        -4.123014         1.490324        -2.327075
 H        -4.492580        -0.256742        -2.304117
 H        -4.578053         0.755466        -0.779585
 H        -2.184274        -1.499848        -3.045394
 H        -0.701226        -0.749939        -2.565266
 H        -3.107839        -1.693986        -0.923992
 H        -1.948243        -1.276726         1.204671
 H        -0.859569        -2.375053         0.240953
 H        -1.440696         1.410199         1.024537
 H        -0.139283         1.972142        -0.019933
