19
Iteration:  2864charge 0 multiplicity 1
 C        -3.628914         0.684740        -0.684256
 C        -2.368539         0.173084        -1.362940
 C        -2.400750        -1.005518        -2.320282
 C        -1.882333        -1.199398        -0.942022
 C        -0.474610        -1.179035        -0.676863
 C        -0.423061        -0.034486         0.278778
 O        -0.760931        -0.141237         1.484334
 C        -0.349895         1.229935        -0.528077
 O        -1.376031         1.123276        -1.536218
 H        -4.071056         1.632748        -1.066718
 H        -4.366271        -0.114769        -0.644431
 H        -3.356047         0.764868         0.385301
 H        -3.291587        -1.520865        -2.788980
 H        -1.703930        -0.849157        -3.133945
 H        -2.383878        -1.834525        -0.254452
 H        -0.222916        -2.084229        -0.271687
 H         0.122096        -1.005040        -1.590522
 H        -0.644454         2.046433         0.186692
 H         0.596948         1.253825        -1.004277
