19
Iteration:  1258charge 0 multiplicity 1
 C        -3.880072         0.611042        -1.846747
 C        -2.439886         0.238906        -1.449361
 C        -1.753923        -0.853670        -2.273199
 C        -2.303187        -1.163052        -0.879399
 C        -1.266486        -1.218161         0.309770
 C        -0.346433        -0.092832         0.311736
 O         0.835720        -0.369227         0.412360
 C        -0.996521         1.223844         0.255439
 O        -1.610211         1.291933        -1.020120
 H        -3.924961         1.561405        -2.428364
 H        -4.352809        -0.105804        -2.535562
 H        -4.554401         0.655941        -0.988426
 H        -2.250497        -1.390869        -3.119447
 H        -0.727731        -0.603245        -2.379442
 H        -3.159791        -1.788414        -0.830377
 H        -1.986262        -1.192235         1.194942
 H        -0.638927        -2.172915         0.260868
 H        -1.654229         1.279939         1.167707
 H        -0.319972         2.072653         0.387600
