19
Iteration:  2852
 C        -3.703510         0.642389        -0.697905
 C        -2.454419         0.177470        -1.340203
 C        -2.402124        -0.929925        -2.379483
 C        -1.942056        -1.197956        -0.914395
 C        -0.321039        -1.268324        -0.636319
 C        -0.351911        -0.068540         0.327622
 O        -0.766973        -0.161572         1.464539
 C        -0.315772         1.235578        -0.526288
 O        -1.394023         1.172833        -1.542632
 H        -4.157955         1.364555        -1.395579
 H        -4.416290        -0.201621        -0.683768
 H        -3.588558         1.214665         0.246379
 H        -3.459394        -1.378822        -2.494278
 H        -1.577549        -0.975572        -3.137035
 H        -2.658758        -1.628335        -0.229953
 H         0.048687        -2.093884        -0.140015
 H         0.165083        -1.134791        -1.605777
 H        -0.272689         2.254872        -0.016637
 H         0.533696         1.341298        -1.128848
