19
Iteration:  4710
 C        -3.970047         0.631735        -1.714266
 C        -2.470310         0.313441        -1.404306
 C        -1.978293        -0.603403        -2.502911
 C        -2.186650        -1.104777        -1.081684
 C        -1.067373        -1.445290        -0.058140
 C        -0.278218        -0.254150         0.331665
 O         0.551442        -0.385524         1.231243
 C        -0.519105         1.105000        -0.264843
 O        -1.823347         1.410612        -0.789141
 H        -4.457365        -0.096579        -2.395910
 H        -4.724088         0.659601        -0.826266
 H        -3.970284         1.654714        -2.064793
 H        -2.635573        -0.871439        -3.235343
 H        -0.926213        -0.698788        -2.764339
 H        -3.117667        -1.727051        -1.095350
 H        -1.584059        -1.760522         0.804671
 H        -0.382245        -2.154239        -0.485121
 H        -0.403192         1.851166         0.460410
 H         0.371916         1.068006        -0.954821
