19
Iteration:   355
 C        -3.951469         0.670683        -1.509329
 C        -2.458284         0.117175        -1.465661
 C        -1.928744        -0.968213        -2.375317
 C        -2.136444        -1.196685        -0.877834
 C        -1.035868        -1.336028         0.090732
 C        -0.345102        -0.052533         0.310002
 O         0.795070        -0.011685         0.798532
 C        -1.103348         1.226115         0.056625
 O        -1.582533         1.166298        -1.276885
 H        -3.940016         1.719081        -1.069114
 H        -4.375541         0.771539        -2.519860
 H        -4.634657         0.110740        -0.918462
 H        -2.487573        -1.666889        -2.999592
 H        -0.968428        -0.759260        -2.726911
 H        -3.056453        -1.864685        -0.761097
 H        -1.562356        -1.554777         1.050164
 H        -0.258560        -2.096427         0.039368
 H        -1.963847         1.299096         0.798956
 H        -0.440959         2.079705         0.153497
