19
Iteration:   663
 C        -3.928143         0.763985        -1.401800
 C        -2.560447         0.110911        -1.440476
 C        -2.000839        -0.820849        -2.491112
 C        -2.128146        -1.285537        -0.999122
 C        -0.990191        -1.362529         0.052847
 C        -0.301149        -0.087959         0.373998
 O         0.751502         0.080120         0.939558
 C        -1.110810         1.139435         0.019242
 O        -1.520286         1.082719        -1.301275
 H        -3.771079         1.723437        -1.900367
 H        -4.755963         0.200410        -1.885716
 H        -4.202278         0.855235        -0.284222
 H        -2.569946        -1.446554        -3.235590
 H        -0.981153        -0.456393        -2.841473
 H        -2.854866        -2.087760        -0.829242
 H        -1.440575        -1.846909         1.008778
 H        -0.274068        -2.176478        -0.348511
 H        -1.962627         1.185124         0.742832
 H        -0.451808         1.993846         0.147027
