19
Iteration:  3602charge 0 multiplicity 1
 C        -3.809503         0.722730        -0.892427
 C        -2.514621         0.219074        -1.376747
 C        -2.073054        -0.696359        -2.567473
 C        -1.948376        -1.170617        -1.182336
 C        -0.659779        -1.450856        -0.459886
 C        -0.380908        -0.257850         0.318864
 O        -0.168775        -0.224806         1.524796
 C        -0.562095         1.168229        -0.347546
 O        -1.626081         1.298108        -1.314937
 H        -4.587224         0.302178        -1.576783
 H        -3.969378         0.377765         0.085986
 H        -3.880211         1.858931        -1.006214
 H        -2.849618        -1.127387        -3.239583
 H        -1.181517        -0.351320        -3.064447
 H        -2.766712        -1.919931        -0.981989
 H        -0.651169        -2.268249         0.290381
 H         0.180113        -1.516224        -1.203986
 H        -0.473345         1.874035         0.498857
 H         0.435148         1.219159        -0.900103
