19
Iteration:   158
 C        -3.589229         0.663198        -0.640868
 C        -2.422730         0.052371        -1.393001
 C        -2.469269        -0.998306        -2.489363
 C        -1.971620        -1.392707        -1.051486
 C        -0.546461        -1.269748        -0.416128
 C        -0.428627         0.083448         0.357277
 O        -0.195275         0.336624         1.526340
 C        -0.769375         1.288048        -0.515671
 O        -1.319019         0.829946        -1.679063
 H        -4.538158         0.558665        -1.156023
 H        -3.712433         0.075426         0.275122
 H        -3.468893         1.706565        -0.413387
 H        -3.451770        -1.549318        -2.517534
 H        -1.833986        -0.915377        -3.382140
 H        -2.769529        -2.079458        -0.546044
 H        -0.301131        -2.128929         0.287934
 H         0.180027        -1.289773        -1.248573
 H        -1.407861         2.037673         0.004811
 H         0.073173         1.840491        -0.916330
