19
Iteration:   552
 C        -3.949685         0.603631        -2.022892
 C        -2.611992         0.158789        -1.376246
 C        -1.515049        -0.639290        -2.138539
 C        -2.143702        -1.236213        -0.869249
 C        -1.230780        -1.278539         0.370419
 C        -0.267524        -0.143875         0.269373
 O         0.942242        -0.329380         0.474233
 C        -0.826903         1.207154        -0.216043
 O        -2.220365         1.256800        -0.653873
 H        -3.713116         0.911821        -3.081561
 H        -4.752746        -0.169762        -1.982643
 H        -4.187496         1.580388        -1.595842
 H        -1.811872        -1.118887        -3.058007
 H        -0.497545        -0.279309        -2.066633
 H        -2.687014        -2.136818        -0.991206
 H        -1.691712        -1.134529         1.438653
 H        -0.484483        -2.086986         0.513550
 H        -0.805012         1.916804         0.610552
 H        -0.197764         1.645732        -0.950586
