19
Iteration:  1967
 C        -3.843649         0.848911        -1.775479
 C        -2.546405         0.209182        -1.490321
 C        -2.004985        -0.828825        -2.402638
 C        -2.181966        -1.140693        -0.853158
 C        -1.076169        -1.493716         0.174764
 C        -0.326071        -0.196416         0.415687
 O         0.837174        -0.109738         0.747579
 C        -1.071596         1.148370         0.152521
 O        -1.576953         1.165186        -1.162637
 H        -3.760197         1.929573        -2.167683
 H        -4.526969         0.374651        -2.552561
 H        -4.382503         1.002144        -0.806753
 H        -2.744426        -1.440492        -2.951818
 H        -0.961428        -0.681205        -2.789155
 H        -3.066452        -1.709374        -0.738070
 H        -1.510153        -1.906724         1.087954
 H        -0.406672        -2.256569        -0.190665
 H        -1.721825         1.348527         1.008170
 H        -0.273380         1.923313         0.236267
