19
Iteration:  2504charge 0 multiplicity 1
 C        -3.720924         0.825435        -2.074167
 C        -2.490786         0.169182        -1.445576
 C        -1.966030        -0.939557        -2.259239
 C        -2.233890        -1.226699        -0.810050
 C        -1.143033        -1.413664         0.284434
 C        -0.294788        -0.154743         0.362357
 O         0.957395        -0.147935         0.352806
 C        -1.094655         1.163997         0.336264
 O        -1.783710         1.324103        -0.890452
 H        -3.512809         1.734184        -2.581119
 H        -4.043697         0.199902        -2.924011
 H        -4.492832         0.884542        -1.327330
 H        -2.736368        -1.268055        -3.031123
 H        -0.922969        -0.941699        -2.563191
 H        -3.140517        -1.791259        -0.618546
 H        -1.697218        -1.488036         1.219440
 H        -0.451109        -2.320148         0.113705
 H        -1.814212         1.141387         1.242258
 H        -0.440508         1.980830         0.494205
