19
Iteration:  2354charge 0 multiplicity 1
 C        -3.855364         0.836404        -1.466012
 C        -2.492799         0.201568        -1.429928
 C        -2.161197        -0.923732        -2.329378
 C        -2.125047        -1.208844        -0.890969
 C        -0.781021        -1.476754        -0.284655
 C        -0.353553        -0.147544         0.406599
 O         0.536502        -0.081602         1.222461
 C        -1.010041         1.195754        -0.055272
 O        -1.545998         1.208807        -1.386517
 H        -3.662362         1.926602        -1.634765
 H        -4.432510         0.323363        -2.313569
 H        -4.572747         0.763913        -0.598159
 H        -2.882307        -1.483164        -2.947730
 H        -1.110241        -0.834597        -2.771638
 H        -2.902570        -1.795254        -0.417020
 H        -0.825832        -2.296778         0.478894
 H        -0.127964        -1.828909        -1.115063
 H        -1.651437         1.659056         0.784433
 H        -0.143735         1.844270        -0.084807
