19
Iteration:  1083
 C        -3.902507         0.633579        -1.678356
 C        -2.510307         0.162444        -1.589441
 C        -1.841154        -0.830030        -2.403111
 C        -2.251518        -1.244238        -1.025176
 C        -1.335921        -1.322525         0.285357
 C        -0.259785        -0.139212         0.411175
 O         0.946219        -0.190256         0.707583
 C        -0.932332         1.239566         0.129257
 O        -1.682319         1.286436        -1.078232
 H        -4.091288         1.573169        -2.348049
 H        -4.552925        -0.212057        -2.103378
 H        -4.348119         0.932797        -0.699774
 H        -2.451819        -1.144909        -3.279884
 H        -0.767171        -0.691224        -2.668649
 H        -3.073528        -1.928733        -0.829889
 H        -2.006140        -1.217455         1.087706
 H        -0.783286        -2.291838         0.407815
 H        -1.558126         1.611984         0.992382
 H         0.013624         1.868353        -0.035169
