19
Iteration:   217
 C        -3.903835         0.593678        -1.246713
 C        -2.450286         0.080985        -1.387833
 C        -2.500744        -1.160878        -2.166888
 C        -2.073390        -1.176990        -0.728531
 C        -0.528006        -1.133011        -0.602779
 C        -0.237970         0.029506         0.316891
 O         0.069800        -0.021338         1.498980
 C        -0.736647         1.304105        -0.323762
 O        -1.358564         1.074586        -1.581450
 H        -4.609469        -0.007240        -1.879939
 H        -4.263049         0.653506        -0.192600
 H        -3.901255         1.647033        -1.664949
 H        -3.448964        -1.568000        -2.469299
 H        -1.701919        -1.415642        -2.818885
 H        -2.592072        -1.547427         0.105236
 H        -0.168935        -2.058284        -0.206568
 H        -0.007968        -0.934119        -1.581786
 H        -1.467342         1.864571         0.364628
 H         0.133692         2.096603        -0.497835
