19
Iteration:  2313
 C        -3.856969         0.769956        -1.310284
 C        -2.535824         0.165759        -1.500683
 C        -2.411635        -1.016689        -2.487950
 C        -2.104864        -1.174216        -0.940993
 C        -0.683242        -1.235114        -0.455940
 C        -0.239218        -0.065989         0.492636
 O         0.356949        -0.162534         1.571192
 C        -0.858343         1.293909        -0.144466
 O        -1.418464         1.052985        -1.481212
 H        -3.919275         1.859550        -1.465284
 H        -4.547938         0.185977        -1.932962
 H        -4.181663         0.557410        -0.304524
 H        -3.358026        -1.461260        -2.843627
 H        -1.573525        -1.017050        -3.249657
 H        -2.933680        -1.683658        -0.396197
 H        -0.683015        -2.094181         0.192828
 H         0.112488        -1.170695        -1.156655
 H        -1.535963         1.858526         0.480981
 H         0.074951         1.894664        -0.424966
