19
Iteration:  4565
 C        -3.865168         0.792760        -1.788331
 C        -2.522545         0.262323        -1.352461
 C        -1.697585        -0.636176        -2.344357
 C        -2.277007        -1.233588        -1.017325
 C        -1.205237        -1.515337        -0.053582
 C        -0.305290        -0.248697         0.333610
 O         0.735148        -0.379129         0.967244
 C        -0.692300         1.170347        -0.162593
 O        -1.947340         1.387777        -0.815332
 H        -4.357039         0.096150        -2.507600
 H        -4.612303         0.837937        -0.884785
 H        -3.817239         1.792656        -2.193288
 H        -2.179706        -0.985728        -3.351333
 H        -0.583762        -0.575149        -2.268112
 H        -3.130929        -1.953359        -0.854043
 H        -1.780571        -1.569826         0.904248
 H        -0.529777        -2.318712        -0.350432
 H        -0.797255         1.958962         0.679390
 H         0.145621         1.509728        -0.812014
