19
Iteration:  1518
 C        -3.729383         0.805863        -0.767833
 C        -2.495190         0.048095        -1.371848
 C        -2.312685        -0.849593        -2.533900
 C        -1.935819        -1.345769        -1.136262
 C        -0.549242        -1.301790        -0.528257
 C        -0.463654        -0.093293         0.367289
 O        -0.329172        -0.000058         1.577260
 C        -0.397431         1.157333        -0.517240
 O        -1.515765         1.105970        -1.389482
 H        -4.176101         1.461787        -1.604208
 H        -4.550046         0.147854        -0.337397
 H        -3.326311         1.503732         0.003527
 H        -3.290138        -1.181891        -2.895384
 H        -1.562281        -0.529531        -3.219341
 H        -2.696606        -2.030498        -0.749442
 H        -0.469654        -2.169986         0.168114
 H         0.320580        -1.289861        -1.091407
 H        -0.450300         2.111119        -0.005322
 H         0.478151         1.261108        -1.248922
