19
Iteration:  4004
 C        -3.959818         0.764101        -1.523553
 C        -2.463317         0.277638        -1.466201
 C        -1.930378        -0.717826        -2.511343
 C        -2.125991        -1.150043        -1.102311
 C        -1.134734        -1.379075        -0.096981
 C        -0.344238        -0.178717         0.339837
 O         0.707796        -0.369728         0.960860
 C        -1.009110         1.162169         0.213270
 O        -1.476916         1.243868        -1.106114
 H        -4.542219        -0.162735        -1.611408
 H        -4.184580         1.267918        -0.626898
 H        -4.081155         1.341244        -2.471190
 H        -2.599858        -1.126842        -3.212971
 H        -0.941679        -0.447851        -3.009211
 H        -3.125179        -1.668635        -0.863296
 H        -1.748969        -1.569678         0.839424
 H        -0.563129        -2.267055        -0.210687
 H        -1.798748         1.414164         0.962654
 H        -0.294792         1.923479         0.449544
