19
Iteration:  4394charge 0 multiplicity 1
 C        -3.812784         0.771782        -2.079655
 C        -2.504651         0.263694        -1.420421
 C        -1.518789        -0.644753        -2.252506
 C        -2.236265        -1.120228        -1.014881
 C        -1.427166        -1.308433         0.414843
 C        -0.287726        -0.273859         0.368730
 O         0.913389        -0.449665         0.524103
 C        -0.758259         1.145701        -0.176262
 O        -2.174528         1.244244        -0.508391
 H        -4.102198         0.223596        -2.981896
 H        -4.610688         0.866820        -1.239139
 H        -3.597794         1.824635        -2.350613
 H        -1.795798        -0.996348        -3.216371
 H        -0.430605        -0.539235        -2.223936
 H        -2.979441        -1.954503        -1.191608
 H        -2.126822        -1.007375         1.188659
 H        -0.877529        -2.326345         0.365759
 H        -0.522562         1.921215         0.558302
 H        -0.054827         1.291249        -1.064930
