19
Iteration:  2259
 C        -3.632088         0.770142        -0.915390
 C        -2.449248         0.062551        -1.513591
 C        -2.379924        -0.976353        -2.526908
 C        -2.011543        -1.271382        -1.026914
 C        -0.585027        -1.329619        -0.513978
 C        -0.276208        -0.033937         0.380027
 O        -0.158984        -0.098250         1.589516
 C        -0.723936         1.301425        -0.291263
 O        -1.513908         1.134090        -1.514632
 H        -4.056008         1.367987        -1.724891
 H        -4.367939         0.261604        -0.307129
 H        -3.182344         1.517771        -0.315800
 H        -3.278734        -1.389063        -2.999746
 H        -1.496305        -1.088384        -3.258800
 H        -2.816526        -1.745860        -0.380245
 H        -0.435796        -2.145384         0.220200
 H         0.291551        -1.405032        -1.280847
 H        -1.189414         1.822236         0.524191
 H         0.158074         1.985042        -0.618380
