19
Iteration:  1157charge 0 multiplicity 1
 C        -3.584734         0.734144        -2.236143
 C        -2.448050         0.209434        -1.422721
 C        -1.765116        -1.007724        -2.087120
 C        -2.318758        -1.099818        -0.702454
 C        -1.308159        -1.319276         0.374902
 C        -0.307555        -0.196662         0.271171
 O         0.891589        -0.099894         0.018496
 C        -1.108713         1.081781         0.423318
 O        -1.838959         1.299931        -0.782707
 H        -3.229194         1.375208        -3.056009
 H        -4.314884        -0.021783        -2.537218
 H        -4.235039         1.370061        -1.707635
 H        -2.383117        -1.627230        -2.756578
 H        -0.643949        -0.956070        -2.104617
 H        -3.225807        -1.715299        -0.541720
 H        -1.694302        -0.996974         1.444667
 H        -0.854162        -2.344385         0.346493
 H        -1.683376         1.036597         1.346515
 H        -0.294478         1.895637         0.482603
