19
Iteration:   394charge 0 multiplicity 1
 C        -4.042798         0.588335        -2.034196
 C        -2.691245         0.203374        -1.434448
 C        -1.902482        -0.917921        -2.180822
 C        -2.250475        -1.178670        -0.802694
 C        -1.008508        -1.374348         0.122757
 C        -0.155231        -0.097438         0.325760
 O         1.023572        -0.097274         0.731668
 C        -0.900230         1.204111         0.102967
 O        -1.867737         1.316591        -1.009302
 H        -4.204263         1.652274        -2.020791
 H        -4.014801         0.135916        -3.045259
 H        -4.934779         0.207156        -1.430336
 H        -2.498306        -1.474380        -2.932662
 H        -0.806817        -0.811293        -2.496965
 H        -3.090377        -1.810244        -0.469150
 H        -1.257000        -1.673273         1.171781
 H        -0.339814        -2.159062        -0.332478
 H        -1.460680         1.262484         1.030271
 H        -0.280283         2.075538        -0.065731
