19
Iteration:  3674charge 0 multiplicity 1
 C        -3.861396         0.836243        -1.155698
 C        -2.459799         0.340344        -1.542576
 C        -2.287679        -0.874464        -2.473517
 C        -2.084586        -1.186212        -1.066859
 C        -0.579495        -1.264353        -0.625980
 C        -0.389055        -0.152086         0.424593
 O         0.177869        -0.404599         1.515110
 C        -0.960417         1.190089         0.023338
 O        -1.289357         1.150966        -1.387858
 H        -4.535061         0.101426        -0.712133
 H        -3.794173         1.733371        -0.433922
 H        -4.414883         1.121520        -2.023064
 H        -3.178894        -1.313631        -3.084383
 H        -1.388709        -0.898426        -3.109646
 H        -3.002072        -1.742415        -0.751910
 H        -0.337604        -2.168619        -0.061894
 H         0.057148        -1.026837        -1.464789
 H        -1.814789         1.642821         0.615394
 H        -0.149714         1.956574         0.157117
