19
Iteration:  4543charge 0 multiplicity 1
 C        -3.867381         0.671766        -1.846149
 C        -2.460089         0.282284        -1.529536
 C        -1.825403        -0.707642        -2.492858
 C        -2.289980        -1.174362        -1.064379
 C        -1.307981        -1.338665         0.095172
 C        -0.285558        -0.201752         0.315653
 O         0.779158        -0.397975         0.874112
 C        -0.689676         1.179410         0.005487
 O        -1.855841         1.335747        -0.652939
 H        -4.304257        -0.128741        -2.482007
 H        -4.504888         0.791698        -0.894844
 H        -3.787675         1.625022        -2.383194
 H        -2.545674        -1.113620        -3.304377
 H        -0.704498        -0.634969        -2.680537
 H        -3.135788        -1.892537        -1.007460
 H        -1.618033        -1.364841         1.155572
 H        -0.598043        -2.154466        -0.138946
 H        -0.909205         1.745530         0.998643
 H         0.231859         1.621755        -0.432392
