19
Iteration:  3268
 C        -4.052461         0.541359        -1.877894
 C        -2.561468         0.262507        -1.405625
 C        -1.698442        -0.489224        -2.432877
 C        -2.147437        -1.204405        -1.121528
 C        -1.308000        -1.227148         0.198582
 C        -0.181642        -0.127438         0.280756
 O         0.780632        -0.547666         0.931971
 C        -0.573526         1.251606        -0.376932
 O        -2.006391         1.205227        -0.453975
 H        -3.912199         0.854694        -2.942903
 H        -4.593664        -0.346650        -1.789953
 H        -4.634092         1.412142        -1.526886
 H        -1.996233        -0.810179        -3.394763
 H        -0.711617         0.007210        -2.558106
 H        -2.921999        -2.089695        -1.033899
 H        -1.820029        -0.848908         1.132906
 H        -0.915307        -2.203947         0.478985
 H        -0.348884         2.062889         0.345040
 H        -0.075925         1.375413        -1.348092
