19
Iteration:  4649charge 0 multiplicity 1
 C        -3.962875         0.713339        -1.532871
 C        -2.531253         0.296213        -1.455125
 C        -1.760375        -0.570669        -2.532861
 C        -2.100244        -1.153777        -1.226837
 C        -1.296709        -1.332649         0.012587
 C        -0.225169        -0.204614         0.237181
 O         0.486712        -0.356045         1.226019
 C        -0.465772         1.083739        -0.417774
 O        -1.877100         1.172230        -0.633948
 H        -4.552688        -0.151807        -1.926866
 H        -4.200929         1.057486        -0.572218
 H        -4.152379         1.593062        -2.285812
 H        -2.285837        -0.922794        -3.514043
 H        -0.759823        -0.231625        -2.838808
 H        -2.802494        -1.957302        -1.329776
 H        -1.946401        -1.373187         0.958292
 H        -0.677327        -2.239927         0.305876
 H        -0.271608         1.998964         0.208356
 H         0.180967         1.215560        -1.306347
