19
Iteration:   516
 C        -3.876642         0.224263        -1.987287
 C        -2.471114         0.273483        -1.394868
 C        -1.481883        -0.545315        -2.240890
 C        -2.233610        -1.158188        -1.006202
 C        -1.499641        -1.022098         0.388498
 C        -0.287897        -0.099650         0.285647
 O         0.918571        -0.384546         0.357221
 C        -0.692355         1.274949        -0.202629
 O        -2.101570         1.161290        -0.340531
 H        -3.829677         0.234488        -3.146690
 H        -4.345332        -0.796055        -1.791595
 H        -4.669410         0.943382        -1.693203
 H        -1.831309        -0.795906        -3.229248
 H        -0.403442        -0.498354        -2.310690
 H        -3.062996        -1.876910        -1.332920
 H        -2.314359        -0.478355         1.116382
 H        -1.214340        -1.984491         0.717613
 H        -0.566466         2.019152         0.608513
 H        -0.131053         1.466908        -1.138306
