19
Iteration:  3337
 C        -4.004396         0.784176        -1.523882
 C        -2.561377         0.189126        -1.394092
 C        -1.852495        -0.675368        -2.392715
 C        -2.154513        -1.206661        -1.058962
 C        -0.962787        -1.446975        -0.123211
 C        -0.318578        -0.204415         0.352344
 O         0.581103        -0.304970         1.150389
 C        -0.678990         1.140101        -0.194542
 O        -1.833888         1.324095        -1.039564
 H        -3.937029         1.759417        -1.949564
 H        -4.494022         0.078704        -2.235896
 H        -4.565593         0.853401        -0.627755
 H        -2.377601        -1.055406        -3.293390
 H        -0.857139        -0.377651        -2.651065
 H        -3.033448        -1.793964        -0.994729
 H        -1.268779        -1.940016         0.776177
 H        -0.197866        -2.029404        -0.530195
 H        -0.885076         1.776851         0.647103
 H         0.236654         1.493229        -0.721987
