19
Iteration:  4899charge 0 multiplicity 1
 C        -3.873216         0.704092        -1.930254
 C        -2.535856         0.317075        -1.432516
 C        -1.700490        -0.743149        -2.327565
 C        -2.274192        -1.108810        -0.929190
 C        -1.196053        -1.339999         0.153140
 C        -0.279982        -0.267722         0.294054
 O         0.814776        -0.532900         0.810550
 C        -0.729790         1.205494        -0.082949
 O        -2.008295         1.407473        -0.719218
 H        -4.178407         0.073741        -2.786509
 H        -4.712157         0.692327        -1.282228
 H        -3.880021         1.903649        -2.184636
 H        -2.168821        -1.045024        -3.269638
 H        -0.512788        -0.577556        -2.510114
 H        -2.995426        -1.904086        -1.145701
 H        -1.772830        -1.592454         1.004953
 H        -0.596675        -2.251533        -0.110148
 H        -0.824312         1.887786         0.818333
 H        -0.006610         1.644573        -0.756872
