19
Iteration:  4070charge 0 multiplicity 1
 C        -3.887064         0.746229        -1.654651
 C        -2.473668         0.281153        -1.432826
 C        -1.844980        -0.710804        -2.402144
 C        -2.207011        -1.250718        -0.939421
 C        -1.095291        -1.479070        -0.144344
 C        -0.246424        -0.281408         0.214553
 O         0.556055        -0.345262         1.111613
 C        -0.722112         1.180883        -0.115811
 O        -1.808232         1.448776        -0.908345
 H        -4.571638         0.165777        -2.254896
 H        -4.494432         0.954942        -0.858982
 H        -3.941664         1.701421        -2.231405
 H        -2.442643        -0.953890        -3.337780
 H        -0.792740        -0.564224        -2.627691
 H        -3.214826        -1.858892        -0.878006
 H        -1.273373        -1.951890         0.834731
 H        -0.400669        -2.218064        -0.469818
 H        -0.962962         1.423109         0.985597
 H         0.031114         1.844083        -0.547155
