19
Iteration:  3335
 C        -4.005789         0.785636        -1.525756
 C        -2.567437         0.202503        -1.400445
 C        -1.838844        -0.662500        -2.383071
 C        -2.142134        -1.220175        -1.048651
 C        -0.971191        -1.460972        -0.121201
 C        -0.329338        -0.217242         0.356785
 O         0.587430        -0.293329         1.140878
 C        -0.670603         1.134543        -0.211152
 O        -1.838795         1.330344        -1.028176
 H        -3.910576         1.727406        -2.042929
 H        -4.532549         0.101132        -2.197093
 H        -4.551034         0.826401        -0.613702
 H        -2.368624        -1.025644        -3.251418
 H        -0.860303        -0.382888        -2.665584
 H        -3.077021        -1.796607        -1.058331
 H        -1.286173        -1.941243         0.819135
 H        -0.194623        -2.067264        -0.542159
 H        -0.943340         1.764594         0.591414
 H         0.228889         1.492041        -0.669136
