19
Iteration:   115charge 0 multiplicity 1
 C        -3.724633         0.518698        -0.618261
 C        -2.463646         0.090835        -1.458365
 C        -2.377297        -1.025206        -2.383128
 C        -1.888884        -1.244287        -0.994567
 C        -0.605255        -1.221319        -0.312515
 C        -0.391963         0.112681         0.363284
 O        -0.307286         0.158817         1.556390
 C        -0.498260         1.233004        -0.712684
 O        -1.460327         1.044345        -1.739600
 H        -4.532054        -0.040661        -1.136664
 H        -3.643984         0.105031         0.412708
 H        -3.956701         1.588166        -0.637062
 H        -3.369306        -1.577464        -2.464335
 H        -1.782519        -0.999956        -3.297434
 H        -2.683711        -1.901213        -0.412412
 H        -0.449326        -2.087070         0.408313
 H         0.227981        -1.293359        -1.057391
 H        -0.555431         2.269497        -0.214588
 H         0.587781         1.158134        -1.122661
