19
Iteration:    32
 C        -3.997692         0.491904        -1.218647
 C        -2.538282         0.143476        -1.497716
 C        -2.353101        -1.126344        -2.209556
 C        -2.070489        -1.079391        -0.765415
 C        -0.606576        -1.136534        -0.523235
 C        -0.277731        -0.033172         0.438720
 O         0.135535        -0.090488         1.606605
 C        -0.501707         1.260815        -0.482147
 O        -1.512794         1.248086        -1.580958
 H        -4.165733         0.176342        -0.128723
 H        -4.357017         1.550033        -1.448674
 H        -4.714704        -0.087627        -1.773598
 H        -3.299234        -1.574806        -2.449598
 H        -1.593843        -1.481895        -2.842877
 H        -2.710508        -1.767674        -0.126350
 H        -0.421890        -2.135062        -0.098699
 H         0.053865        -1.001713        -1.363856
 H        -0.809317         2.126133         0.079752
 H         0.379378         1.469176        -0.994937
