19
Iteration:  2157
 C        -3.713403         0.888086        -0.927579
 C        -2.503350         0.146259        -1.405632
 C        -2.342186        -0.983596        -2.332351
 C        -1.902512        -1.184529        -0.934053
 C        -0.406178        -1.289250        -0.550636
 C        -0.364330        -0.139134         0.413446
 O        -0.274657        -0.182187         1.620762
 C        -0.714022         1.176268        -0.452098
 O        -1.495476         1.156001        -1.689423
 H        -3.655054         1.920506        -1.295159
 H        -4.690191         0.465916        -1.264216
 H        -3.625556         0.818935         0.190857
 H        -3.190011        -1.601672        -2.681210
 H        -1.621744        -0.871751        -3.130059
 H        -2.587278        -1.696012        -0.271531
 H        -0.056037        -2.303979        -0.215706
 H         0.093472        -1.094849        -1.501934
 H        -1.078390         1.805896         0.408885
 H         0.246363         1.634821        -0.713803
