19
Iteration:  3193
 C        -3.747229         0.607147        -2.030848
 C        -2.531052         0.187215        -1.391117
 C        -1.649915        -0.731785        -2.202552
 C        -2.306486        -1.176592        -0.920334
 C        -1.270684        -1.344514         0.250643
 C        -0.313437        -0.138146         0.228522
 O         0.870135        -0.484336         0.376840
 C        -0.899687         1.328413         0.176069
 O        -1.979841         1.412885        -0.694889
 H        -3.638252         1.641091        -2.366316
 H        -3.971623        -0.077460        -2.816192
 H        -4.596924         0.504555        -1.325920
 H        -1.977239        -1.062958        -3.165054
 H        -0.557982        -0.635979        -2.125372
 H        -3.119275        -2.005587        -0.787384
 H        -1.725937        -1.226350         1.243633
 H        -0.647199        -2.200135         0.264722
 H        -1.118103         1.457180         1.252273
 H        -0.089802         2.000231        -0.255972
