19
Iteration:  4379
 C        -3.767510         0.695214        -1.989485
 C        -2.421649         0.260009        -1.511877
 C        -1.547803        -0.640882        -2.250077
 C        -2.209292        -1.152545        -0.939967
 C        -1.409048        -1.288752         0.255773
 C        -0.405929        -0.164415         0.359751
 O         0.747766        -0.452376         0.510178
 C        -0.717894         1.139186        -0.128795
 O        -2.034382         1.288149        -0.491545
 H        -4.183069        -0.089031        -2.680476
 H        -4.471899         0.665367        -1.161254
 H        -3.694532         1.652653        -2.432923
 H        -2.088073        -1.032070        -3.161682
 H        -0.436057        -0.393044        -2.273202
 H        -3.055257        -1.758053        -1.018281
 H        -2.036720        -1.454692         1.146783
 H        -0.904392        -2.317450         0.319370
 H        -0.526867         1.921743         0.597944
 H        -0.089597         1.288630        -1.007847
