19
Iteration:  2652charge 0 multiplicity 1
 C        -3.921641         0.684909        -1.694110
 C        -2.502106         0.265594        -1.495301
 C        -1.976121        -0.865939        -2.411979
 C        -2.238670        -1.097682        -0.993344
 C        -1.084501        -1.453897         0.019185
 C        -0.262488        -0.175989         0.365888
 O         0.867319        -0.132042         0.884952
 C        -1.026481         1.125862         0.198873
 O        -1.603962         1.313763        -1.141003
 H        -3.952032         1.379792        -2.544215
 H        -4.575899        -0.172573        -1.844554
 H        -4.281499         1.154381        -0.754834
 H        -2.618939        -1.339277        -3.115548
 H        -1.013144        -0.904644        -2.774609
 H        -3.108851        -1.579963        -0.646413
 H        -1.642220        -1.882110         0.930095
 H        -0.458561        -2.274527        -0.165399
 H        -1.869849         1.002437         0.965634
 H        -0.345519         1.958050         0.328023
