19
Iteration:  2940charge 0 multiplicity 1
 C        -3.681391         0.797865        -0.923915
 C        -2.463872         0.156167        -1.488435
 C        -2.387431        -0.944401        -2.486565
 C        -2.077661        -1.303771        -1.096487
 C        -0.574158        -1.280634        -0.541985
 C        -0.433446        -0.105907         0.445188
 O        -0.040648        -0.055714         1.632839
 C        -0.788989         1.295702        -0.269034
 O        -1.335003         1.025787        -1.574174
 H        -3.722815         1.849543        -1.232685
 H        -4.550256         0.234260        -1.224461
 H        -3.624468         0.898336         0.190673
 H        -3.335660        -1.259993        -2.999174
 H        -1.567661        -1.017703        -3.230086
 H        -2.706086        -1.937926        -0.511943
 H        -0.283435        -2.177528        -0.098028
 H         0.131371        -1.108078        -1.369112
 H        -1.416829         1.864243         0.466408
 H         0.142603         1.781098        -0.433050
