19
Iteration:  1679
 C        -3.907179         0.792997        -1.506273
 C        -2.440319         0.287962        -1.521952
 C        -2.036606        -0.940967        -2.411579
 C        -2.250829        -1.132527        -0.943411
 C        -1.021467        -1.521132        -0.082550
 C        -0.282943        -0.219900         0.357340
 O         0.689304        -0.099737         1.103972
 C        -0.972989         1.150026        -0.010804
 O        -1.534562         1.325376        -1.277014
 H        -4.049591         1.491754        -2.312137
 H        -4.509851        -0.095573        -1.424817
 H        -4.095031         1.176817        -0.550346
 H        -2.857367        -1.222517        -3.056985
 H        -1.025654        -0.913892        -2.824292
 H        -3.124938        -1.773576        -0.678118
 H        -1.346198        -2.047384         0.861373
 H        -0.349707        -2.206984        -0.684754
 H        -1.779406         1.152896         0.888440
 H        -0.192438         1.874138         0.134386
