19
Iteration:  4087
 C        -3.844775         0.747919        -1.682685
 C        -2.478993         0.211062        -1.397396
 C        -1.837571        -0.694439        -2.397438
 C        -2.352083        -1.182532        -1.034415
 C        -1.033208        -1.505782        -0.158248
 C        -0.328985        -0.200579         0.327977
 O         0.598031        -0.347608         1.098430
 C        -0.655826         1.244196        -0.137133
 O        -1.865846         1.381341        -0.876465
 H        -4.404971         0.039171        -2.363266
 H        -4.422003         0.719909        -0.619167
 H        -3.803013         1.785059        -2.046534
 H        -2.379594        -0.959316        -3.265073
 H        -0.715198        -0.788329        -2.418366
 H        -3.190086        -1.738067        -0.936112
 H        -1.416366        -2.051055         0.722495
 H        -0.361808        -2.198850        -0.772255
 H        -0.816886         1.836121         0.754264
 H         0.348431         1.413634        -0.682235
