19
Iteration:    22charge 0 multiplicity 1
 C        -4.006930         0.567318        -1.169245
 C        -2.561978         0.170607        -1.560955
 C        -2.326534        -1.190297        -2.304984
 C        -2.098304        -1.053429        -0.794361
 C        -0.609725        -1.198406        -0.454381
 C        -0.277861        -0.044083         0.460456
 O         0.235480        -0.039813         1.569674
 C        -0.627580         1.248197        -0.387449
 O        -1.500214         1.190093        -1.612632
 H        -4.101700         0.617933        -0.044703
 H        -4.283897         1.573726        -1.556544
 H        -4.675718        -0.199290        -1.566851
 H        -3.150713        -1.748688        -2.704465
 H        -1.391357        -1.354473        -2.832888
 H        -2.747562        -1.545655        -0.048223
 H        -0.406168        -2.225584        -0.158644
 H        -0.085221        -1.008176        -1.384515
 H        -0.980502         1.958474         0.341853
 H         0.343964         1.569217        -0.664577
