19
Iteration:  3533charge 0 multiplicity 1
 C        -3.881497         0.703195        -1.059829
 C        -2.411033         0.222907        -1.397820
 C        -2.343556        -0.757133        -2.533349
 C        -1.994666        -1.195710        -1.025506
 C        -0.483116        -1.359104        -0.589789
 C        -0.332935        -0.154099         0.396942
 O        -0.204315        -0.266671         1.582484
 C        -0.499991         1.182377        -0.289172
 O        -1.563196         1.263649        -1.323950
 H        -4.261058         1.043336        -2.010737
 H        -4.436043        -0.155944        -0.574216
 H        -3.834633         1.596207        -0.485559
 H        -3.355403        -1.074888        -2.937840
 H        -1.437094        -0.695485        -3.263936
 H        -2.597075        -1.976904        -0.524603
 H        -0.423057        -2.430645        -0.295856
 H         0.205029        -1.104840        -1.493336
 H        -0.512958         1.975980         0.457057
 H         0.455923         1.195724        -0.849101
