19
Iteration:  2953
 C        -3.772929         0.748110        -1.071160
 C        -2.441266         0.114970        -1.461064
 C        -2.330984        -0.942472        -2.535463
 C        -2.079052        -1.200333        -0.967271
 C        -0.689734        -1.280403        -0.518496
 C        -0.370880        -0.055761         0.442784
 O         0.054312        -0.106485         1.555156
 C        -0.699947         1.210811        -0.225858
 O        -1.400250         1.091738        -1.473277
 H        -3.897178         1.594080        -1.800098
 H        -4.684135         0.187848        -1.269490
 H        -3.860209         0.994689         0.013927
 H        -3.206484        -1.397164        -2.946878
 H        -1.384877        -0.914724        -3.138189
 H        -2.937692        -1.733437        -0.474932
 H        -0.379710        -2.257670        -0.087375
 H        -0.078568        -1.029034        -1.369334
 H        -1.410138         1.813907         0.430519
 H         0.170067         1.866272        -0.462484
