19
Iteration:    53charge 0 multiplicity 1
 C        -3.940023         0.556362        -1.204045
 C        -2.506464         0.070542        -1.273321
 C        -2.453681        -1.103472        -2.261440
 C        -1.984411        -1.195567        -0.767680
 C        -0.449111        -1.241324        -0.463727
 C        -0.273789         0.076493         0.275230
 O        -0.121198        -0.039892         1.473866
 C        -0.409659         1.316098        -0.545959
 O        -1.557576         1.187506        -1.420147
 H        -4.571494        -0.011580        -0.409533
 H        -4.081691         1.695371        -1.256276
 H        -4.453184         0.366432        -2.122362
 H        -3.292633        -1.583303        -2.709811
 H        -1.637877        -1.115177        -2.925586
 H        -2.641326        -1.619317         0.109146
 H        -0.108911        -2.133410         0.096858
 H         0.051580        -1.258617        -1.430061
 H        -0.506720         2.252662         0.017535
 H         0.475566         1.334296        -1.166264
