19
Iteration:   512
 C        -3.920441         0.224235        -1.988115
 C        -2.487004         0.227573        -1.418751
 C        -1.464970        -0.536912        -2.206194
 C        -2.227482        -1.144863        -1.033761
 C        -1.460502        -0.961128         0.416077
 C        -0.271714        -0.070983         0.278589
 O         0.915751        -0.443929         0.359889
 C        -0.734225         1.280228        -0.189805
 O        -2.096910         1.169940        -0.362159
 H        -3.879206         0.259309        -3.041401
 H        -4.170901        -0.809903        -1.750547
 H        -4.690332         0.990517        -1.687442
 H        -1.838484        -0.860282        -3.272320
 H        -0.367670        -0.338432        -2.215468
 H        -3.028449        -1.870013        -1.297295
 H        -2.225214        -0.553982         0.961148
 H        -1.294697        -2.095095         0.652458
 H        -0.582942         1.967095         0.668929
 H        -0.043290         1.507411        -1.105200
