19
Iteration:   492charge 0 multiplicity 1
 C        -4.008823         0.324663        -1.995608
 C        -2.571602         0.158444        -1.439711
 C        -1.443458        -0.497243        -2.170471
 C        -1.995342        -1.174707        -0.885554
 C        -1.385227        -1.067775         0.434797
 C        -0.261997        -0.155368         0.256871
 O         0.916009        -0.541203         0.373663
 C        -0.763728         1.316629        -0.140943
 O        -2.221299         1.292663        -0.590509
 H        -4.072265         0.672176        -3.036014
 H        -4.706590        -0.560982        -1.873453
 H        -4.403552         1.239706        -1.407385
 H        -1.579809        -1.054199        -3.193575
 H        -0.419881        -0.076276        -2.212175
 H        -2.596139        -2.113157        -1.170862
 H        -2.100032        -0.591150         1.161168
 H        -0.918132        -2.051435         0.847494
 H        -0.857924         1.912641         0.794856
 H        -0.119002         1.767918        -0.990324
