19
Iteration:  3235charge 0 multiplicity 1
 C        -3.939313         0.677971        -1.914743
 C        -2.509489         0.253818        -1.510728
 C        -1.521421        -0.526127        -2.289897
 C        -2.224800        -1.196338        -0.986895
 C        -1.403285        -1.274555         0.327946
 C        -0.258040        -0.270834         0.290721
 O         0.918651        -0.336608         0.637910
 C        -0.719259         1.053762        -0.239959
 O        -2.112334         1.235746        -0.502585
 H        -3.790621         1.121695        -2.915465
 H        -4.521857        -0.178524        -2.113532
 H        -4.452467         1.304891        -1.166578
 H        -1.772019        -0.893440        -3.272888
 H        -0.516438        -0.070327        -2.286458
 H        -2.924073        -2.062807        -1.365413
 H        -2.073603        -1.008460         1.152099
 H        -1.071894        -2.314550         0.454390
 H        -0.560824         1.837070         0.544522
 H        -0.128137         1.293207        -1.137985
