19
Iteration:  3600
 C        -3.782300         0.727008        -0.901649
 C        -2.519590         0.217694        -1.376391
 C        -2.077941        -0.687195        -2.554864
 C        -1.941271        -1.174630        -1.156074
 C        -0.669338        -1.430138        -0.462007
 C        -0.379062        -0.243707         0.308079
 O        -0.176759        -0.240213         1.529511
 C        -0.549369         1.152104        -0.357668
 O        -1.630222         1.298478        -1.316565
 H        -4.563833         0.305698        -1.570883
 H        -4.025396         0.293147         0.078392
 H        -3.948813         1.809067        -0.956373
 H        -2.848426        -1.109361        -3.333541
 H        -1.160574        -0.326429        -3.058566
 H        -2.795635        -1.910610        -0.964299
 H        -0.635515        -2.283973         0.271523
 H         0.239561        -1.537223        -1.173866
 H        -0.518094         1.890350         0.414485
 H         0.354154         1.237806        -0.936923
