19
Iteration:  3040
 C        -3.909866         0.826484        -1.633139
 C        -2.516026         0.220760        -1.523434
 C        -2.028898        -0.991039        -2.406356
 C        -2.218371        -1.188180        -0.973228
 C        -1.015374        -1.417388        -0.048186
 C        -0.342660        -0.068468         0.435749
 O         0.798194        -0.163442         0.948700
 C        -1.052587         1.210899         0.181553
 O        -1.541450         1.188126        -1.213083
 H        -4.032316         1.136213        -2.710540
 H        -4.653993         0.132079        -1.325156
 H        -3.811132         1.763578        -1.023034
 H        -2.696641        -1.350218        -3.185354
 H        -0.987200        -0.714712        -2.603619
 H        -3.136066        -1.890347        -0.859508
 H        -1.324409        -2.008925         0.877795
 H        -0.222983        -1.956562        -0.526554
 H        -1.784226         1.466124         0.937153
 H        -0.257301         1.943770         0.407939
