19
Iteration:  2569
 C        -3.844536         0.549952        -1.835408
 C        -2.436746         0.313054        -1.484605
 C        -1.756326        -0.863515        -2.403145
 C        -2.148794        -1.093775        -0.926764
 C        -1.300473        -1.324969         0.387368
 C        -0.318923        -0.206140         0.392890
 O         0.861798        -0.318545         0.365569
 C        -1.047496         1.169268         0.289457
 O        -1.714852         1.427883        -0.962462
 H        -3.944776         1.368327        -2.547603
 H        -4.170926        -0.401196        -2.316772
 H        -4.490270         0.808073        -0.980680
 H        -2.494535        -1.410143        -3.076786
 H        -0.718939        -0.656095        -2.760901
 H        -3.054166        -1.679314        -0.661956
 H        -2.060980        -1.221962         1.121269
 H        -0.779445        -2.344549         0.391570
 H        -1.816190         1.307687         1.092689
 H        -0.379694         1.992625         0.396814
