19
Iteration:  4371charge 0 multiplicity 1
 C        -3.800727         0.648169        -1.982508
 C        -2.408871         0.261072        -1.387623
 C        -1.561696        -0.631319        -2.253988
 C        -2.234577        -1.172535        -1.010826
 C        -1.398156        -1.310066         0.251532
 C        -0.434094        -0.177874         0.329236
 O         0.719185        -0.475223         0.549444
 C        -0.653048         1.224283        -0.113676
 O        -2.024094         1.319728        -0.556725
 H        -4.148817        -0.220212        -2.575044
 H        -4.396806         0.732137        -0.978727
 H        -3.873586         1.577029        -2.500552
 H        -1.967427        -1.028602        -3.162988
 H        -0.424365        -0.612574        -2.322099
 H        -3.125030        -1.809549        -1.129112
 H        -2.003135        -1.246354         1.141531
 H        -0.800775        -2.255649        -0.027322
 H        -0.533857         1.898378         0.703459
 H         0.221212         1.383344        -0.848187
