19
Iteration:  1514charge 0 multiplicity 1
 C        -3.694912         0.783657        -0.788044
 C        -2.477535         0.092391        -1.324202
 C        -2.332592        -0.848457        -2.535681
 C        -1.929750        -1.324772        -1.125536
 C        -0.531596        -1.354396        -0.535217
 C        -0.442724        -0.105158         0.343811
 O        -0.366594         0.003240         1.571816
 C        -0.399972         1.184378        -0.542930
 O        -1.536476         1.095187        -1.386910
 H        -4.089563         1.460758        -1.593872
 H        -4.579593         0.239813        -0.406322
 H        -3.478443         1.475469         0.051971
 H        -3.318199        -1.218756        -2.811521
 H        -1.570288        -0.431602        -3.275167
 H        -2.580141        -2.032142        -0.652811
 H        -0.496538        -2.113044         0.224928
 H         0.437835        -1.385477        -1.137398
 H        -0.492749         2.093274         0.058489
 H         0.482128         1.233379        -1.157159
