19
Iteration:   458charge 0 multiplicity 1
 C        -3.956808         0.537660        -1.922339
 C        -2.524047         0.111127        -1.437260
 C        -1.544580        -0.656488        -2.177821
 C        -2.140029        -1.209037        -0.860357
 C        -1.270834        -1.288995         0.437577
 C        -0.344017        -0.173509         0.359278
 O         0.887971        -0.176945         0.325917
 C        -0.840782         1.183610        -0.029838
 O        -2.050679         1.282790        -0.835197
 H        -3.817365         1.268859        -2.704681
 H        -4.588806        -0.322902        -2.262846
 H        -4.451316         1.030186        -1.000850
 H        -1.778057        -1.297565        -3.085104
 H        -0.492058        -0.258824        -2.115010
 H        -2.938849        -1.936680        -1.052765
 H        -1.972852        -1.234250         1.242134
 H        -0.798284        -2.361283         0.431539
 H        -1.047547         1.773624         0.894283
 H         0.123587         1.628484        -0.477353
