19
Iteration:  4587
 C        -4.016266         0.750102        -1.841802
 C        -2.611419         0.303252        -1.484900
 C        -1.676231        -0.549881        -2.302803
 C        -2.209331        -1.094546        -0.963003
 C        -1.108940        -1.515437         0.079688
 C        -0.297734        -0.306284         0.324952
 O         0.670604        -0.381222         1.050041
 C        -0.554179         1.026540        -0.281917
 O        -1.973942         1.362400        -0.777374
 H        -4.719049         0.195144        -2.483954
 H        -4.592123         0.917734        -0.811749
 H        -3.988625         1.744186        -2.216021
 H        -2.086633        -0.972913        -3.323754
 H        -0.674763        -0.116843        -2.336063
 H        -3.014311        -1.890325        -1.161077
 H        -1.613813        -1.972485         0.904754
 H        -0.393033        -2.020840        -0.536687
 H        -0.286997         1.799031         0.556406
 H         0.088434         1.282509        -1.136763
