19
Iteration:  1308
 C        -3.969555         0.825045        -1.778291
 C        -2.597539         0.191699        -1.478087
 C        -2.029786        -0.825281        -2.354137
 C        -2.245800        -1.141439        -0.868532
 C        -0.990297        -1.428482         0.045022
 C        -0.162329        -0.268420         0.295853
 O         0.748396        -0.099411         1.076564
 C        -0.781445         1.082131        -0.066987
 O        -1.729657         1.271541        -1.120452
 H        -3.953861         1.440063        -2.703217
 H        -4.775700         0.095855        -2.065352
 H        -4.368557         1.338392        -0.881042
 H        -2.673894        -1.348608        -3.098294
 H        -0.969273        -0.734075        -2.719843
 H        -3.119838        -1.781524        -0.565517
 H        -1.394023        -1.917791         0.909122
 H        -0.453548        -2.217751        -0.444835
 H        -1.164388         1.320700         0.989803
 H         0.086138         1.865819        -0.094252
