19
Iteration:   621charge 0 multiplicity 1
 C        -3.935143         0.412232        -1.668480
 C        -2.512742         0.197135        -1.532958
 C        -1.977941        -0.940930        -2.382296
 C        -2.214978        -1.155798        -0.887644
 C        -1.093459        -1.269697         0.098107
 C        -0.223985        -0.056556         0.309199
 O         0.865704        -0.218730         0.799119
 C        -0.908928         1.291721         0.160938
 O        -1.727964         1.419945        -1.144839
 H        -4.247512         1.349506        -2.036580
 H        -4.326570        -0.285090        -2.385370
 H        -4.611641         0.310145        -0.785953
 H        -2.701110        -1.398396        -3.098996
 H        -0.878044        -1.038782        -2.590328
 H        -3.203476        -1.610435        -0.680454
 H        -1.538787        -1.604714         1.073025
 H        -0.376350        -2.194639        -0.152894
 H        -1.548199         1.452087         1.022291
 H        -0.166684         2.109069         0.153995
