19
Iteration:   968charge 0 multiplicity 1
 C        -3.778828         1.006338        -1.273076
 C        -2.582553         0.107465        -1.426221
 C        -2.390039        -1.081563        -2.303632
 C        -2.000296        -1.196476        -0.824753
 C        -0.435403        -1.084827        -0.647442
 C        -0.310018        -0.094154         0.425029
 O         0.069975        -0.290157         1.549011
 C        -0.917795         1.278378        -0.217252
 O        -1.375490         0.973391        -1.523439
 H        -3.847506         1.738413        -2.009375
 H        -4.630127         0.389574        -1.210597
 H        -3.783073         1.536863        -0.321140
 H        -3.323762        -1.633643        -2.580810
 H        -1.650090        -1.075129        -3.114048
 H        -2.635896        -1.804310        -0.213611
 H        -0.114390        -2.118993        -0.386829
 H        -0.076185        -0.755896        -1.573343
 H        -1.683544         1.514108         0.591038
 H        -0.206833         2.073574        -0.216220
