19
Iteration:  4810
 C        -4.066696         0.592298        -1.712049
 C        -2.561306         0.302569        -1.511408
 C        -1.734369        -0.499052        -2.425399
 C        -2.234981        -1.085101        -1.130614
 C        -1.267133        -1.287924         0.003863
 C        -0.225020        -0.225595         0.318531
 O         0.609066        -0.461528         1.171617
 C        -0.406843         1.124091        -0.359548
 O        -1.894143         1.241979        -0.640822
 H        -4.617912        -0.349609        -1.981372
 H        -4.444682         0.964839        -0.757922
 H        -4.169188         1.468146        -2.481734
 H        -2.084846        -1.000555        -3.376256
 H        -0.698322        -0.296534        -2.521301
 H        -2.947003        -1.884948        -1.051794
 H        -1.813746        -1.390595         0.902048
 H        -0.595862        -2.112633        -0.162967
 H        -0.097217         1.996455         0.213680
 H         0.163125         1.092176        -1.291688
