19
Iteration:  1385
 C        -3.753770         0.863598        -1.042176
 C        -2.498902         0.131775        -1.536581
 C        -2.369507        -0.946568        -2.515452
 C        -2.118210        -1.211049        -1.037535
 C        -0.668446        -1.371039        -0.459184
 C        -0.354972        -0.071929         0.452829
 O         0.210282        -0.068967         1.524617
 C        -0.879531         1.221842        -0.164967
 O        -1.311971         1.031461        -1.512948
 H        -4.026039         1.779381        -1.649978
 H        -4.724512         0.311032        -1.043554
 H        -3.606184         1.246389        -0.009508
 H        -3.282458        -1.321076        -3.057547
 H        -1.527490        -0.955015        -3.208128
 H        -2.938988        -1.736819        -0.575737
 H        -0.532002        -2.302672         0.060527
 H        -0.055935        -1.427930        -1.319466
 H        -1.701688         1.591060         0.497938
 H        -0.069798         2.043047        -0.083169
