19
Iteration:  4915charge 0 multiplicity 1
 C        -3.779446         0.633432        -2.026473
 C        -2.463143         0.276878        -1.379957
 C        -1.739607        -0.684288        -2.292597
 C        -2.343660        -1.131404        -0.976178
 C        -1.307078        -1.397296         0.042047
 C        -0.286303        -0.209049         0.263988
 O         0.804801        -0.446546         0.742994
 C        -0.694952         1.240214        -0.027794
 O        -1.977473         1.388517        -0.620313
 H        -4.139031        -0.138198        -2.724874
 H        -4.564495         0.757681        -1.158740
 H        -3.687887         1.478094        -2.571416
 H        -2.409974        -0.983078        -3.086240
 H        -0.753784        -0.856613        -2.310029
 H        -3.286188        -1.592686        -0.696255
 H        -1.642104        -1.607373         1.123359
 H        -0.695737        -2.299719        -0.058290
 H        -0.682879         1.679469         0.965513
 H         0.176381         1.782683        -0.514895
