19
Iteration:  4042
 C        -4.034482         0.701566        -1.690654
 C        -2.551963         0.297443        -1.493387
 C        -1.930629        -0.620095        -2.504507
 C        -2.185381        -1.105962        -1.057075
 C        -1.123726        -1.413284        -0.066620
 C        -0.248872        -0.298715         0.474429
 O         0.818263        -0.368047         1.123172
 C        -0.789563         1.138927         0.045325
 O        -1.707413         1.308929        -1.053048
 H        -4.730507        -0.121456        -1.997113
 H        -4.622455         1.227408        -0.828671
 H        -4.144066         1.488230        -2.513506
 H        -2.550466        -1.043953        -3.337123
 H        -0.939176        -0.274004        -2.707970
 H        -3.048914        -1.746595        -0.947538
 H        -1.688689        -1.902371         0.764210
 H        -0.422872        -2.268173        -0.429353
 H        -1.174073         1.551896         0.973306
 H         0.119152         1.667465        -0.418773
