19
Iteration:  2984charge 0 multiplicity 1
 C        -4.053561         0.726017        -1.449436
 C        -2.514930         0.239204        -1.470181
 C        -2.255846        -0.884867        -2.381582
 C        -2.064473        -1.151655        -0.874667
 C        -0.703003        -1.421138        -0.388066
 C        -0.281965        -0.090760         0.437590
 O         0.369491        -0.264724         1.481360
 C        -0.727771         1.256624        -0.151028
 O        -1.501688         1.256477        -1.415535
 H        -4.242934         1.146372        -2.454965
 H        -4.646912        -0.150544        -1.288502
 H        -4.368450         1.540409        -0.745997
 H        -3.024176        -1.395401        -2.931831
 H        -1.392599        -1.053176        -3.073081
 H        -2.963023        -1.674071        -0.484754
 H        -0.694631        -2.224480         0.324815
 H         0.081175        -1.638265        -1.103476
 H        -1.408738         1.763549         0.555990
 H         0.181467         1.771798        -0.352651
