19
Iteration:  1847
 C        -3.740865         0.734897        -2.030603
 C        -2.482326         0.150570        -1.489650
 C        -1.849452        -1.011990        -2.294090
 C        -2.401619        -1.159929        -0.848349
 C        -1.278132        -1.236150         0.254959
 C        -0.151318        -0.107402         0.304180
 O         1.012542        -0.345378         0.407557
 C        -0.985962         1.239780         0.357543
 O        -1.849607         1.335203        -0.852626
 H        -3.537520         1.514694        -2.793805
 H        -4.296094        -0.036778        -2.605401
 H        -4.319311         1.180143        -1.233594
 H        -2.595527        -1.351682        -3.044431
 H        -0.751088        -1.016544        -2.447470
 H        -3.350612        -1.637760        -0.705719
 H        -1.734872        -1.138137         1.326929
 H        -0.877401        -2.233660         0.191087
 H        -1.685239         1.295483         1.210554
 H        -0.582568         2.299488         0.325253
