19
Iteration:    98charge 0 multiplicity 1
 C        -3.768239         0.636717        -0.774644
 C        -2.492141         0.036327        -1.319056
 C        -2.345704        -1.074020        -2.373501
 C        -1.927482        -1.256334        -0.914556
 C        -0.404001        -1.332795        -0.400275
 C        -0.417669         0.007424         0.313027
 O        -0.314895         0.207532         1.503835
 C        -0.486267         1.218709        -0.693411
 O        -1.593514         1.108193        -1.614294
 H        -4.707610         0.065520        -0.980994
 H        -3.635690         0.934201         0.282873
 H        -3.815324         1.644849        -1.202793
 H        -3.021337        -1.633793        -2.947442
 H        -1.506710        -0.775144        -2.997846
 H        -2.539070        -1.814093        -0.264643
 H        -0.310179        -2.024643         0.415040
 H         0.380418        -1.512739        -1.133388
 H        -0.493209         2.081242        -0.036226
 H         0.434241         1.190322        -1.260633
