19
Iteration:  1902charge 0 multiplicity 1
 C        -3.906307         0.619167        -1.714830
 C        -2.476772         0.247646        -1.493935
 C        -1.707393        -0.731536        -2.292650
 C        -2.142038        -1.061506        -0.902625
 C        -1.346318        -1.439113         0.407498
 C        -0.356517        -0.223990         0.523533
 O         0.830987        -0.336602         0.393305
 C        -1.057360         1.138255         0.148082
 O        -1.596284         1.432901        -1.194912
 H        -4.065394         1.171743        -2.686295
 H        -4.517733        -0.330587        -1.673777
 H        -4.149358         1.257044        -0.860437
 H        -2.070817        -1.317279        -3.142577
 H        -0.579118        -0.562259        -2.404007
 H        -3.015639        -1.650472        -0.882740
 H        -2.197884        -1.632858         1.233959
 H        -0.752481        -2.339841         0.196862
 H        -1.936119         1.308938         0.802527
 H        -0.357153         2.005850         0.281698
