19
Iteration:  2973charge 0 multiplicity 1
 C        -3.957256         0.733674        -1.331778
 C        -2.514694         0.268278        -1.510982
 C        -2.272843        -0.946613        -2.383379
 C        -2.115143        -1.165302        -0.943603
 C        -0.634701        -1.322622        -0.416034
 C        -0.314223        -0.132124         0.425108
 O         0.231952        -0.219367         1.490622
 C        -0.726173         1.244225        -0.167966
 O        -1.455964         1.178551        -1.429344
 H        -4.310315         1.332277        -2.205909
 H        -4.641252        -0.095622        -1.324315
 H        -4.092400         1.256150        -0.363633
 H        -3.179564        -1.289935        -2.852003
 H        -1.269417        -0.899414        -2.857017
 H        -2.793499        -1.867689        -0.434711
 H        -0.562670        -2.124147         0.290340
 H         0.072343        -1.482682        -1.232344
 H        -1.180826         1.924476         0.588729
 H         0.143592         1.777183        -0.480542
