19
Iteration:  3619charge 0 multiplicity 1
 C        -3.929101         0.714656        -0.945386
 C        -2.484251         0.196727        -1.451705
 C        -2.183813        -0.690519        -2.668741
 C        -1.959245        -1.254617        -1.208144
 C        -0.645475        -1.500818        -0.513060
 C        -0.425182        -0.178296         0.392729
 O        -0.059547        -0.165402         1.574666
 C        -0.529865         1.140065        -0.246113
 O        -1.495112         1.313387        -1.265888
 H        -4.884824         0.233671        -1.149690
 H        -3.981448         0.839830         0.218157
 H        -4.080716         1.708140        -1.335254
 H        -2.966725        -1.172257        -3.349029
 H        -1.324458        -0.426941        -3.318819
 H        -2.828552        -1.847940        -0.906067
 H        -0.733103        -2.441546         0.048259
 H         0.251813        -1.745680        -1.112967
 H        -0.919269         1.850861         0.475379
 H         0.396248         1.542196        -0.654772
