19
Iteration:  3589charge 0 multiplicity 1
 C        -3.850239         0.641641        -0.932584
 C        -2.432153         0.213721        -1.423428
 C        -2.135351        -0.620093        -2.537554
 C        -2.017164        -1.206496        -1.095650
 C        -0.617417        -1.373383        -0.475822
 C        -0.395149        -0.116231         0.375744
 O        -0.207722        -0.321616         1.537884
 C        -0.470947         1.120388        -0.465755
 O        -1.585577         1.307096        -1.293896
 H        -4.642311         0.365282        -1.664109
 H        -4.096575         0.159346         0.028515
 H        -3.864162         1.718696        -0.700205
 H        -2.809913        -1.110151        -3.368547
 H        -1.150834        -0.226022        -2.879560
 H        -2.810271        -1.891052        -0.597317
 H        -0.734963        -2.285841         0.188734
 H         0.215941        -1.646715        -1.236823
 H        -0.641331         1.927319         0.191525
 H         0.409297         1.340270        -1.035868
