19
Iteration:  4622
 C        -3.913665         0.604717        -1.757814
 C        -2.506176         0.269668        -1.401389
 C        -1.879347        -0.490051        -2.556520
 C        -2.234406        -1.176277        -1.202395
 C        -1.294021        -1.357930        -0.018583
 C        -0.191868        -0.195127         0.358073
 O         0.634968        -0.375851         1.228078
 C        -0.426542         1.071806        -0.375004
 O        -1.937345         1.304704        -0.577709
 H        -4.390019        -0.274641        -2.152258
 H        -4.361426         0.877930        -0.719071
 H        -3.933258         1.440324        -2.407939
 H        -2.503121        -0.560813        -3.402767
 H        -0.861704        -0.308085        -2.855100
 H        -3.011705        -1.989445        -1.030460
 H        -1.873212        -1.425374         0.905379
 H        -0.667700        -2.283516         0.152701
 H        -0.148982         1.997785         0.087772
 H         0.120415         0.974351        -1.352984
