19
Iteration:  1397charge 0 multiplicity 1
 C        -3.667273         0.967171        -0.974218
 C        -2.474271         0.169749        -1.432476
 C        -2.420560        -0.863761        -2.523599
 C        -2.039933        -1.299687        -0.987176
 C        -0.559868        -1.342501        -0.460671
 C        -0.320683        -0.092927         0.369369
 O         0.060387        -0.075243         1.550436
 C        -0.968480         1.151565        -0.239412
 O        -1.343734         0.972327        -1.590168
 H        -3.603941         1.883139        -1.632744
 H        -4.520585         0.309746        -1.228645
 H        -3.714632         1.192937         0.076513
 H        -3.375429        -1.315364        -2.834953
 H        -1.583362        -0.695613        -3.219352
 H        -2.705029        -1.897162        -0.415990
 H        -0.409884        -2.250332         0.156575
 H         0.159425        -1.312896        -1.242487
 H        -1.865943         1.403988         0.374616
 H        -0.253314         2.077616        -0.260246
