19
Iteration:  2227charge 0 multiplicity 1
 C        -3.770665         0.710505        -0.774223
 C        -2.459387         0.179444        -1.415308
 C        -2.394393        -0.859814        -2.412767
 C        -1.894200        -1.218735        -1.063764
 C        -0.489002        -1.273885        -0.604809
 C        -0.496103        -0.056925         0.399370
 O        -0.277963        -0.082341         1.603912
 C        -0.683542         1.201208        -0.362787
 O        -1.323357         1.036581        -1.685027
 H        -4.343377         1.156291        -1.588786
 H        -4.417434        -0.006411        -0.320852
 H        -3.535211         1.451836        -0.063115
 H        -3.254083        -1.466089        -2.685158
 H        -1.583444        -0.684275        -3.202358
 H        -2.487989        -1.875939        -0.372944
 H        -0.341701        -2.115673         0.088186
 H         0.494558        -1.241773        -1.225465
 H        -0.965078         2.098875         0.166237
 H         0.465184         1.265023        -0.531131
