19
Iteration:  4067
 C        -3.914837         0.766299        -1.675514
 C        -2.477470         0.264744        -1.437062
 C        -1.849638        -0.694565        -2.422955
 C        -2.227457        -1.241190        -0.954977
 C        -1.060681        -1.471312        -0.107288
 C        -0.244469        -0.277391         0.202013
 O         0.567514        -0.349719         1.118883
 C        -0.725165         1.169969        -0.107506
 O        -1.798892         1.450571        -0.914188
 H        -4.584991         0.059667        -2.223345
 H        -4.560762         0.992411        -0.777613
 H        -3.992722         1.630413        -2.232896
 H        -2.459316        -1.071201        -3.208062
 H        -0.760058        -0.495018        -2.678967
 H        -3.104557        -1.787661        -0.891664
 H        -1.349286        -1.925513         0.876254
 H        -0.410122        -2.264740        -0.501201
 H        -1.030482         1.359967         1.000307
 H         0.134384         1.725383        -0.429523
