19
Iteration:   480charge 0 multiplicity 1
 C        -3.986932         0.476095        -1.947490
 C        -2.594186         0.095548        -1.423442
 C        -1.422218        -0.502841        -2.163228
 C        -1.983753        -1.202017        -0.909471
 C        -1.317102        -1.193546         0.556640
 C        -0.257051        -0.164502         0.274510
 O         0.919871        -0.473883         0.360933
 C        -0.886450         1.257366        -0.158893
 O        -2.218485         1.342886        -0.746497
 H        -3.885131         0.801406        -2.965786
 H        -4.683487        -0.414333        -1.924855
 H        -4.470911         1.245950        -1.239400
 H        -1.757686        -1.162303        -3.054558
 H        -0.496336         0.120079        -2.251512
 H        -2.483476        -2.175735        -1.145254
 H        -2.048183        -0.896268         1.288051
 H        -0.917945        -2.273243         0.850043
 H        -0.871188         1.854221         0.788685
 H        -0.056226         1.830490        -0.764282
