19
Iteration:   906
 C        -3.712719         0.658915        -0.735025
 C        -2.413921         0.155662        -1.380294
 C        -2.376515        -0.954411        -2.405551
 C        -1.942840        -1.175301        -0.949245
 C        -0.404971        -1.223215        -0.618240
 C        -0.419218        -0.002759         0.292747
 O        -0.475750        -0.186565         1.508025
 C        -0.592961         1.297559        -0.380637
 O        -1.348509         1.084061        -1.634456
 H        -4.406183         1.171361        -1.484051
 H        -4.168548        -0.323607        -0.424262
 H        -3.525971         1.296907         0.203230
 H        -3.315845        -1.297217        -2.682613
 H        -1.556680        -0.950647        -3.099813
 H        -2.541907        -1.655212        -0.151662
 H        -0.298831        -2.131050        -0.086556
 H         0.308335        -1.313753        -1.457131
 H        -1.076268         2.015636         0.294331
 H         0.289556         1.780611        -0.819207
