19
Iteration:  3737charge 0 multiplicity 1
 C        -3.901522         0.921526        -1.442024
 C        -2.509828         0.242416        -1.522163
 C        -2.323081        -0.804754        -2.500507
 C        -2.122563        -1.114201        -1.105129
 C        -0.659871        -1.240999        -0.491114
 C        -0.366168        -0.162977         0.529097
 O         0.466788        -0.359774         1.389845
 C        -1.020039         1.135003         0.144726
 O        -1.369908         1.036455        -1.256334
 H        -4.683273         0.334000        -1.969899
 H        -4.229780         1.213214        -0.368238
 H        -3.789457         1.801546        -2.097396
 H        -3.238320        -1.204433        -2.991976
 H        -1.421660        -0.744074        -3.048494
 H        -2.792483        -1.848148        -0.623202
 H        -0.335096        -2.175667        -0.019455
 H         0.172577        -1.158156        -1.218341
 H        -1.928236         1.229235         0.771348
 H        -0.276331         2.034255         0.244518
