19
Iteration:  1067charge 0 multiplicity 1
 C        -3.946255         0.670584        -1.499093
 C        -2.528282         0.129794        -1.460360
 C        -1.825720        -0.884790        -2.542763
 C        -2.097254        -1.203946        -1.038570
 C        -1.250188        -1.224914         0.174589
 C        -0.273620        -0.102463         0.364305
 O         0.792022        -0.281987         0.879910
 C        -0.883531         1.251237         0.030033
 O        -1.697207         1.236161        -1.186631
 H        -3.916667         1.529191        -2.080723
 H        -4.696416        -0.018520        -1.761342
 H        -4.200569         1.027621        -0.503492
 H        -2.384030        -1.502591        -3.205751
 H        -0.859088        -0.508481        -2.851459
 H        -2.976663        -1.875097        -1.060512
 H        -2.004892        -0.955555         0.998744
 H        -0.804589        -2.182120         0.379572
 H        -1.542796         1.524667         0.914599
 H        -0.273981         2.095444        -0.111029
