19
Iteration:   482charge 0 multiplicity 1
 C        -4.003273         0.455194        -1.956331
 C        -2.580726         0.090657        -1.424474
 C        -1.420894        -0.493338        -2.161996
 C        -1.982901        -1.203488        -0.908008
 C        -1.308431        -1.171479         0.549229
 C        -0.246096        -0.172434         0.265232
 O         0.909568        -0.491414         0.365592
 C        -0.861125         1.279896        -0.159365
 O        -2.234325         1.344010        -0.724236
 H        -3.910024         0.810817        -3.000293
 H        -4.671522        -0.452354        -1.901316
 H        -4.445331         1.264021        -1.280997
 H        -1.741300        -1.165243        -3.021299
 H        -0.506878         0.091651        -2.264206
 H        -2.512676        -2.183327        -1.212177
 H        -2.106398        -0.826751         1.281688
 H        -0.957447        -2.201229         0.813569
 H        -0.874563         1.845996         0.792240
 H        -0.056719         1.781866        -0.763369
