19
Iteration:  4520
 C        -3.990211         0.653919        -1.923171
 C        -2.537446         0.291262        -1.524239
 C        -1.747836        -0.678010        -2.426315
 C        -2.172971        -1.055979        -1.091184
 C        -1.316805        -1.295985         0.184200
 C        -0.209630        -0.272731         0.419505
 O         0.928165        -0.534294         0.792952
 C        -0.750844         1.183507         0.057680
 O        -1.961322         1.344875        -0.760202
 H        -4.525554        -0.261159        -2.313062
 H        -4.478205         1.025907        -0.991890
 H        -3.770768         1.486795        -2.629047
 H        -2.446019        -0.865257        -3.270544
 H        -0.587830        -0.544107        -2.565438
 H        -3.004807        -1.732688        -1.024070
 H        -1.936013        -1.036561         1.096892
 H        -0.900963        -2.293685         0.299113
 H        -1.019841         1.653652         1.094819
 H         0.098997         1.711230        -0.414561
