19
Iteration:  2224charge 0 multiplicity 1
 C        -3.768889         0.681888        -0.793629
 C        -2.462396         0.185515        -1.406068
 C        -2.402685        -0.829816        -2.431949
 C        -1.908836        -1.206612        -1.041380
 C        -0.467796        -1.250451        -0.602958
 C        -0.470196        -0.076310         0.402077
 O        -0.299860        -0.066371         1.600250
 C        -0.658634         1.196639        -0.367871
 O        -1.314639         1.000309        -1.672347
 H        -4.377265         1.204794        -1.533418
 H        -4.427026        -0.106061        -0.309249
 H        -3.544284         1.434284        -0.012659
 H        -3.338463        -1.407183        -2.691241
 H        -1.537387        -0.678377        -3.116981
 H        -2.497834        -1.752783        -0.338828
 H        -0.393657        -2.189317         0.017040
 H         0.408103        -1.201261        -1.332787
 H        -1.080843         2.098223         0.097717
 H         0.458963         1.274729        -0.568877
