19
Iteration:  4484charge 0 multiplicity 1
 C        -3.897022         0.607419        -1.889711
 C        -2.489516         0.302231        -1.435822
 C        -1.489613        -0.539362        -2.161518
 C        -2.194803        -1.115484        -0.969734
 C        -1.413948        -1.385934         0.279583
 C        -0.388956        -0.280217         0.252761
 O         0.764355        -0.459846         0.555906
 C        -0.736202         1.139922        -0.101098
 O        -1.936956         1.333641        -0.703675
 H        -4.596872        -0.077148        -2.363141
 H        -4.410742         1.195641        -1.186849
 H        -3.886808         1.394391        -2.791152
 H        -1.695436        -0.798039        -3.175477
 H        -0.473690        -0.224137        -2.157871
 H        -2.947224        -1.824398        -1.285861
 H        -1.974412        -1.458836         1.267019
 H        -0.940076        -2.338635         0.177378
 H        -0.978966         1.732399         0.860424
 H         0.168194         1.700174        -0.509282
