19
Iteration:  3145
 C        -3.886874         0.730489        -2.061982
 C        -2.444532         0.259107        -1.443084
 C        -1.696155        -0.784012        -2.169243
 C        -2.261513        -1.104904        -0.780105
 C        -1.279578        -1.449212         0.345607
 C        -0.275912        -0.257294         0.341267
 O         0.921759        -0.242710         0.221709
 C        -1.105171         1.116599         0.388285
 O        -1.747254         1.352478        -0.952816
 H        -3.848619         1.834767        -2.175375
 H        -3.961674         0.321383        -3.106896
 H        -4.819257         0.393685        -1.598062
 H        -2.122144        -1.298634        -3.064040
 H        -0.621189        -0.579841        -2.271913
 H        -3.167988        -1.637484        -0.648738
 H        -1.736428        -1.399282         1.322492
 H        -0.598045        -2.353925         0.259098
 H        -1.918277         0.970665         1.156332
 H        -0.404557         1.899737         0.520625
