19
Iteration:  4416
 C        -3.856315         0.781979        -2.192080
 C        -2.649902         0.203807        -1.445823
 C        -1.590532        -0.535407        -2.104628
 C        -2.245989        -1.240800        -0.945132
 C        -1.436853        -1.205417         0.303906
 C        -0.177305        -0.296370         0.214518
 O         0.973436        -0.491203         0.594170
 C        -0.758469         1.139190        -0.137404
 O        -2.100302         1.202486        -0.488293
 H        -3.993763         0.274872        -3.138714
 H        -4.823660         0.942352        -1.589578
 H        -3.540018         1.826290        -2.490831
 H        -1.742110        -0.837912        -3.115741
 H        -0.601217        -0.141037        -2.071522
 H        -2.812462        -2.217372        -1.081824
 H        -2.046112        -0.554664         0.923645
 H        -1.002111        -2.162314         0.768334
 H        -0.580014         1.647763         0.817194
 H        -0.065692         1.692075        -0.862346
