19
Iteration:  3112
 C        -3.750317         0.807905        -1.740086
 C        -2.407935         0.177055        -1.501391
 C        -1.728713        -0.913950        -2.324468
 C        -2.255927        -1.251276        -0.864085
 C        -1.264110        -1.398685         0.235494
 C        -0.440274        -0.111366         0.370802
 O         0.780123        -0.155400         0.249303
 C        -1.209475         1.226944         0.448750
 O        -1.530955         1.200538        -1.032071
 H        -3.505375         1.852018        -1.868944
 H        -4.016356         0.428370        -2.753917
 H        -4.441967         0.590327        -0.928470
 H        -2.215068        -1.368515        -3.177486
 H        -0.621610        -0.722980        -2.384268
 H        -3.234705        -1.607854        -0.760383
 H        -1.803898        -1.508713         1.163332
 H        -0.510159        -2.270605         0.144344
 H        -2.090753         1.353480         1.172047
 H        -0.668246         2.123333         0.556409
