19
Iteration:  4365
 C        -3.804497         0.592584        -1.922276
 C        -2.474375         0.286807        -1.358778
 C        -1.541308        -0.641355        -2.261495
 C        -2.274840        -1.156100        -1.043591
 C        -1.412335        -1.337784         0.214021
 C        -0.406289        -0.225342         0.302692
 O         0.754340        -0.498217         0.599944
 C        -0.648974         1.280565        -0.104896
 O        -1.993378         1.356494        -0.611826
 H        -4.222416        -0.193853        -2.536733
 H        -4.484069         0.818873        -1.143547
 H        -3.901185         1.513873        -2.615473
 H        -1.920990        -0.892776        -3.277053
 H        -0.496477        -0.724074        -2.263733
 H        -3.073621        -1.915704        -1.180026
 H        -2.032795        -1.306340         1.163663
 H        -0.706879        -2.138357         0.266469
 H        -0.525653         1.937498         0.824427
 H         0.117301         1.604916        -0.786877
