19
Iteration:  3900
 C        -3.906793         0.954382        -1.714355
 C        -2.498651         0.313077        -1.530494
 C        -2.049309        -0.885958        -2.451747
 C        -2.238604        -1.145272        -0.994408
 C        -0.932626        -1.363549        -0.232888
 C        -0.327170        -0.246602         0.444838
 O         0.761109        -0.215619         0.974685
 C        -1.099952         0.962976         0.351360
 O        -1.498463         1.228580        -1.063178
 H        -4.742043         0.376556        -2.070287
 H        -4.140183         1.377124        -0.724204
 H        -3.781585         1.834838        -2.327266
 H        -2.757051        -1.298116        -3.129836
 H        -1.015367        -0.739906        -2.867726
 H        -3.214746        -1.551838        -0.824342
 H        -1.128662        -2.206660         0.459758
 H        -0.109031        -1.877662        -0.837559
 H        -2.066717         0.956124         0.962949
 H        -0.410118         1.884435         0.470062
