19
Iteration:  3083
 C        -3.790076         0.814047        -1.616754
 C        -2.418143         0.238121        -1.580846
 C        -1.871877        -0.908307        -2.404829
 C        -2.236320        -1.220469        -0.943979
 C        -1.290490        -1.364985         0.208783
 C        -0.376769        -0.162603         0.453039
 O         0.828418         0.003840         0.464437
 C        -1.227576         1.059060         0.357356
 O        -1.369152         1.144292        -1.144238
 H        -3.905144         1.817226        -2.102595
 H        -4.254394         0.022133        -2.115409
 H        -4.178958         0.997825        -0.569506
 H        -2.425035        -1.529576        -3.139524
 H        -0.831733        -0.753834        -2.697736
 H        -3.314598        -1.679244        -0.821848
 H        -1.919757        -1.453745         1.120245
 H        -0.735838        -2.287203         0.204731
 H        -2.193371         1.024534         0.824741
 H        -0.843228         2.050189         0.639318
