19
Iteration:  4321charge 0 multiplicity 1
 C        -4.100436         0.691089        -1.894707
 C        -2.548114         0.294393        -1.527511
 C        -1.684827        -0.560745        -2.421248
 C        -2.161920        -1.023957        -0.972974
 C        -1.291699        -1.382094         0.281002
 C        -0.227613        -0.245162         0.382801
 O         0.900125        -0.457870         0.823967
 C        -0.772154         1.041795        -0.031547
 O        -1.874505         1.312005        -0.818884
 H        -4.502994        -0.229862        -2.292026
 H        -4.704431         1.200286        -1.179663
 H        -4.020621         1.305285        -2.892411
 H        -2.123831        -1.041354        -3.266235
 H        -0.713636        -0.204027        -2.693849
 H        -2.914989        -1.859781        -1.166057
 H        -2.010429        -1.355384         1.144948
 H        -0.953434        -2.315696        -0.026272
 H        -0.958416         1.521258         1.008429
 H         0.125925         1.559098        -0.337560
