19
Iteration:   914
 C        -3.681292         0.666772        -0.827674
 C        -2.383072         0.183993        -1.413853
 C        -2.448044        -1.013365        -2.317147
 C        -1.917904        -1.223222        -0.956486
 C        -0.375472        -1.196212        -0.614497
 C        -0.340629        -0.039418         0.298247
 O        -0.469110        -0.229669         1.484868
 C        -0.642749         1.359028        -0.329470
 O        -1.362266         1.115259        -1.633385
 H        -4.298581         1.180932        -1.534942
 H        -4.332700        -0.117223        -0.456902
 H        -3.528720         1.356747         0.029820
 H        -3.506533        -1.267111        -2.571203
 H        -1.830402        -1.108115        -3.185055
 H        -2.635457        -1.544861        -0.233537
 H        -0.150966        -2.028631         0.062600
 H         0.159756        -1.205079        -1.496765
 H        -1.209988         1.937383         0.442283
 H         0.272640         1.802893        -0.596529
