19
Iteration:  3634charge 0 multiplicity 1
 C        -3.836709         0.680213        -1.036218
 C        -2.499662         0.244472        -1.470467
 C        -2.292415        -0.661168        -2.633981
 C        -2.051693        -1.202491        -1.275540
 C        -0.663889        -1.364169        -0.457988
 C        -0.352837        -0.203585         0.421821
 O         0.023833        -0.230060         1.626129
 C        -0.617444         1.176926        -0.156083
 O        -1.474599         1.199249        -1.351939
 H        -4.387068        -0.284360        -1.069678
 H        -3.773753         1.022887        -0.036441
 H        -4.261587         1.522174        -1.655389
 H        -3.206308        -0.996714        -3.185793
 H        -1.396628        -0.378052        -3.201387
 H        -2.734049        -1.971540        -0.829375
 H        -0.673001        -2.298680         0.181246
 H         0.189706        -1.452253        -1.227064
 H        -0.932788         1.829704         0.646569
 H         0.334705         1.489632        -0.539338
