19
Iteration:  3036
 C        -3.941489         0.815485        -1.645890
 C        -2.528813         0.211391        -1.504329
 C        -2.043564        -1.005186        -2.423230
 C        -2.234160        -1.174903        -0.964697
 C        -1.005362        -1.416885        -0.076816
 C        -0.320242        -0.112711         0.422265
 O         0.781852        -0.147121         1.001433
 C        -1.009222         1.227362         0.181318
 O        -1.535936         1.194081        -1.192697
 H        -4.094528         1.189556        -2.636787
 H        -4.739761         0.150356        -1.282576
 H        -3.846479         1.768720        -1.160053
 H        -2.630821        -1.305317        -3.286319
 H        -0.967595        -0.842251        -2.689876
 H        -3.082414        -1.780988        -0.837364
 H        -1.222016        -2.004064         0.766195
 H        -0.148020        -1.960161        -0.591109
 H        -1.783085         1.553166         0.905173
 H        -0.230784         1.976505         0.169557
