19
Iteration:  3318
 C        -4.004702         0.702467        -1.626686
 C        -2.552402         0.265978        -1.471558
 C        -1.798413        -0.560712        -2.380094
 C        -2.172350        -1.230743        -1.051739
 C        -1.093421        -1.625662         0.003242
 C        -0.296844        -0.300652         0.342379
 O         0.654636        -0.184804         1.069121
 C        -0.677385         1.106309        -0.219916
 O        -1.878213         1.420648        -0.910123
 H        -4.101255         1.612451        -2.287214
 H        -4.742759        -0.126211        -1.859949
 H        -4.201400         1.257391        -0.665629
 H        -2.260986        -1.010379        -3.302644
 H        -0.734222        -0.262516        -2.548806
 H        -2.831456        -2.071186        -1.124811
 H        -1.519886        -2.140396         0.876772
 H        -0.340830        -2.371829        -0.443679
 H        -0.555308         1.670987         0.757374
 H         0.187928         1.424053        -0.921474
