19
Iteration:  4734charge 0 multiplicity 1
 C        -3.956807         0.713411        -1.752474
 C        -2.555322         0.264600        -1.510462
 C        -1.912254        -0.721420        -2.469024
 C        -2.387189        -1.136934        -1.004958
 C        -1.090914        -1.366685        -0.208075
 C        -0.156153        -0.209941         0.356310
 O         0.605585        -0.425625         1.288605
 C        -0.513957         1.235851        -0.230540
 O        -1.817709         1.300566        -0.750438
 H        -4.675549        -0.001734        -2.216701
 H        -4.424555         0.902087        -0.800368
 H        -3.897459         1.814317        -2.120378
 H        -2.487613        -1.131478        -3.336523
 H        -0.886035        -0.580773        -2.626019
 H        -3.136874        -1.900670        -1.073862
 H        -1.467238        -1.869562         0.674105
 H        -0.331847        -1.971101        -0.831236
 H        -0.615701         1.881847         0.625828
 H         0.367769         1.540822        -0.890221
