19
Iteration:  4820
 C        -4.006470         0.605029        -1.673384
 C        -2.508781         0.282412        -1.462877
 C        -1.668194        -0.533683        -2.487941
 C        -2.208135        -1.154618        -1.137015
 C        -1.336939        -1.190485         0.031679
 C        -0.200784        -0.175741         0.321095
 O         0.627580        -0.544555         1.167870
 C        -0.468001         1.156396        -0.416781
 O        -1.927560         1.276872        -0.600326
 H        -4.484945        -0.297921        -2.171775
 H        -4.491467         0.750744        -0.678481
 H        -4.397609         1.392066        -2.433230
 H        -2.264226        -0.956354        -3.373491
 H        -0.660424        -0.318464        -2.543479
 H        -3.108749        -1.770021        -1.287768
 H        -1.863177        -1.428271         0.895460
 H        -0.837991        -2.127484         0.010730
 H        -0.178322         2.105419        -0.035660
 H         0.037573         1.090486        -1.372454
