19
Iteration:  2277charge 0 multiplicity 1
 C        -3.810170         0.763144        -1.019385
 C        -2.444454         0.191766        -1.428125
 C        -2.316290        -0.963368        -2.422610
 C        -2.073892        -1.197846        -0.982045
 C        -0.601301        -1.316870        -0.535371
 C        -0.370906        -0.082999         0.357242
 O        -0.022617        -0.057827         1.522916
 C        -0.778633         1.242600        -0.262002
 O        -1.321814         1.052389        -1.535069
 H        -4.323844         1.423527        -1.740018
 H        -4.491836        -0.145326        -0.925150
 H        -3.754850         1.228072         0.006004
 H        -3.205823        -1.414450        -2.881360
 H        -1.473694        -0.805150        -3.106437
 H        -2.654210        -1.821132        -0.368736
 H        -0.327971        -2.211228         0.048826
 H         0.045664        -1.389823        -1.378051
 H        -1.500152         1.815651         0.393617
 H         0.123239         1.802313        -0.187532
