19
Iteration:   776
 C        -3.949110         0.646670        -1.298500
 C        -2.481220         0.065542        -1.445645
 C        -2.376352        -1.049504        -2.458598
 C        -2.006247        -1.230890        -0.978748
 C        -0.499813        -1.299633        -0.414661
 C        -0.296357        -0.054050         0.425270
 O         0.197355        -0.106433         1.520196
 C        -0.577478         1.335750        -0.273863
 O        -1.692635         1.284151        -1.295498
 H        -4.115585         1.340064        -2.128375
 H        -4.671707        -0.151219        -1.463119
 H        -4.186232         1.094888        -0.359673
 H        -3.347093        -1.361668        -2.773780
 H        -1.726161        -0.861964        -3.217161
 H        -2.625437        -1.913643        -0.396544
 H        -0.530466        -2.126806         0.283334
 H         0.054329        -1.472242        -1.436664
 H        -0.811192         2.165650         0.376963
 H         0.299246         1.513935        -0.966818
