19
Iteration:  4739
 C        -3.976327         0.761177        -1.744460
 C        -2.527960         0.207275        -1.513159
 C        -1.923906        -0.718227        -2.432298
 C        -2.357588        -1.098730        -1.053827
 C        -1.078470        -1.356953        -0.185404
 C        -0.183487        -0.196119         0.361111
 O         0.601625        -0.418224         1.257484
 C        -0.515920         1.195228        -0.219720
 O        -1.840725         1.288830        -0.759011
 H        -4.670697         0.078937        -2.216788
 H        -4.399501         0.980247        -0.717499
 H        -3.841830         1.706444        -2.213467
 H        -2.461775        -1.166487        -3.262443
 H        -0.787888        -0.631947        -2.507414
 H        -3.085554        -1.934222        -1.128519
 H        -1.303153        -1.961175         0.758470
 H        -0.425894        -1.897096        -0.881604
 H        -0.609320         1.931142         0.646018
 H         0.352186         1.470724        -0.816960
