19
Iteration:   701charge 0 multiplicity 1
 C        -3.773858         0.767515        -1.335504
 C        -2.452485         0.081214        -1.598116
 C        -2.298031        -1.063835        -2.550879
 C        -2.143001        -1.232160        -1.014198
 C        -0.819381        -1.315558        -0.184124
 C        -0.355642         0.011340         0.477194
 O         0.672098         0.032705         1.105366
 C        -1.228061         1.192277         0.130855
 O        -1.360642         1.126462        -1.308145
 H        -4.184989         1.366760        -2.185717
 H        -4.525931         0.026267        -1.068904
 H        -3.688573         1.417409        -0.525934
 H        -3.251074        -1.407189        -2.917985
 H        -1.492325        -1.114908        -3.191086
 H        -3.019614        -1.789227        -0.679237
 H        -0.893493        -1.957574         0.673174
 H         0.067194        -1.643649        -0.806410
 H        -2.209196         1.167659         0.578790
 H        -0.735494         2.135278         0.418324
