19
Iteration:  3786
 C        -3.945047         0.763245        -1.257418
 C        -2.430541         0.266770        -1.511301
 C        -2.025736        -0.730571        -2.591982
 C        -2.086933        -1.140228        -1.108466
 C        -0.944310        -1.487247        -0.251950
 C        -0.385856        -0.260611         0.324837
 O         0.418405        -0.274873         1.266136
 C        -0.850479         1.136359         0.011128
 O        -1.499098         1.361681        -1.232039
 H        -4.558467         0.217512        -1.991277
 H        -4.235335         0.504308        -0.280806
 H        -4.175500         1.823099        -1.534360
 H        -2.682195        -1.202317        -3.303372
 H        -1.002410        -0.475398        -2.932321
 H        -2.946692        -1.731096        -0.798172
 H        -1.310496        -1.990343         0.669225
 H        -0.155610        -2.170924        -0.538848
 H        -1.523923         1.554185         0.904878
 H         0.096885         1.546248         0.038583
