19
Iteration:  1026
 C        -3.947542         0.629195        -1.242710
 C        -2.498534         0.210316        -1.522482
 C        -2.085883        -0.795085        -2.565147
 C        -2.182837        -1.176709        -1.072279
 C        -1.052270        -1.483208        -0.091275
 C        -0.306798        -0.160820         0.468525
 O         0.598150        -0.040979         1.276010
 C        -0.843962         1.250869        -0.161890
 O        -1.468990         1.209700        -1.395747
 H        -4.252593         1.374375        -2.030811
 H        -4.584756        -0.268165        -1.449850
 H        -4.031744         0.921761        -0.177448
 H        -2.735695        -1.284202        -3.273652
 H        -1.052183        -0.722804        -2.821495
 H        -3.159079        -1.588509        -0.700199
 H        -1.431119        -2.073485         0.689464
 H        -0.294556        -2.146139        -0.507705
 H        -1.445176         1.685941         0.692909
 H         0.128243         1.748045        -0.103954
