19
Iteration:  4835
 C        -3.938852         0.576355        -1.663874
 C        -2.493235         0.302098        -1.450025
 C        -1.683868        -0.549941        -2.470697
 C        -2.174582        -1.104577        -1.213809
 C        -1.351495        -1.276772         0.134805
 C        -0.274756        -0.217479         0.375205
 O         0.648991        -0.525938         1.079758
 C        -0.558927         1.165008        -0.477105
 O        -1.945099         1.300455        -0.592313
 H        -4.387797        -0.195557        -2.318837
 H        -4.404968         0.549996        -0.697779
 H        -3.953261         1.709431        -2.102300
 H        -2.200656        -0.684130        -3.399216
 H        -0.543248        -0.493811        -2.729154
 H        -2.831602        -1.962143        -1.104554
 H        -2.118507        -0.890593         0.863300
 H        -0.756310        -2.226326         0.385717
 H        -0.116776         2.001193         0.146939
 H        -0.063318         1.089739        -1.474498
