19
Iteration:  4079
 C        -3.849526         0.733524        -1.655463
 C        -2.474362         0.276913        -1.408075
 C        -1.864548        -0.732448        -2.343355
 C        -2.288549        -1.191899        -1.042786
 C        -1.060235        -1.535310        -0.160529
 C        -0.307783        -0.241645         0.253915
 O         0.572563        -0.345895         1.107792
 C        -0.673168         1.215288        -0.127896
 O        -1.869510         1.406872        -0.912492
 H        -4.362899         0.103992        -2.389210
 H        -4.286405         0.855702        -0.658138
 H        -3.623720         1.681904        -2.037851
 H        -2.313258        -0.733469        -3.316841
 H        -0.747722        -0.792751        -2.413494
 H        -3.119713        -1.889014        -0.800641
 H        -1.344177        -1.944855         0.841026
 H        -0.349848        -2.174259        -0.675608
 H        -0.788258         1.820621         0.866925
 H         0.078786         1.835017        -0.561350
