19
Iteration:   735
 C        -3.978103         0.730582        -1.457928
 C        -2.601887         0.167379        -1.453678
 C        -2.219925        -1.002819        -2.350216
 C        -2.180789        -1.148373        -0.774494
 C        -0.628790        -1.299549        -0.489520
 C        -0.269500        -0.081397         0.417501
 O         0.511868        -0.069175         1.343103
 C        -1.027156         1.220085        -0.036235
 O        -1.411247         1.096764        -1.393459
 H        -4.263793         0.990420        -2.509847
 H        -4.687566        -0.010883        -1.071119
 H        -4.001221         1.583136        -0.834661
 H        -3.022396        -1.493454        -2.929455
 H        -1.291248        -0.847716        -2.927052
 H        -2.908797        -1.837662        -0.354479
 H        -0.274655        -2.182136        -0.007072
 H         0.001648        -1.143697        -1.381561
 H        -1.830864         1.534243         0.665588
 H        -0.265878         1.967973         0.056919
