19
Iteration:  1435
 C        -3.655517         0.938432        -0.861443
 C        -2.417463         0.124025        -1.441130
 C        -2.526323        -1.074440        -2.378370
 C        -1.947386        -1.274336        -0.996117
 C        -0.437607        -1.207004        -0.668080
 C        -0.386437        -0.065088         0.385419
 O        -0.347193        -0.192167         1.623683
 C        -0.638044         1.306691        -0.364142
 O        -1.334457         1.028513        -1.602630
 H        -3.672870         1.996271        -0.948508
 H        -4.622545         0.688487        -1.304623
 H        -3.894780         0.716911         0.213078
 H        -3.562343        -1.433553        -2.568373
 H        -1.887209        -1.263012        -3.224922
 H        -2.662789        -1.844516        -0.306870
 H         0.097255        -2.083326        -0.192086
 H         0.188259        -0.864934        -1.608956
 H        -1.116500         2.077604         0.314114
 H         0.312851         1.671121        -0.662611
