19
Iteration:  1982
 C        -3.922036         0.878171        -1.736980
 C        -2.547575         0.260833        -1.414958
 C        -2.019481        -0.913210        -2.259878
 C        -2.210856        -1.164130        -0.803492
 C        -1.013972        -1.465984         0.008342
 C        -0.279243        -0.185445         0.355169
 O         0.787042        -0.152449         0.881818
 C        -1.096833         1.067533         0.079331
 O        -1.491122         1.295228        -1.288817
 H        -3.578923         1.789266        -2.174026
 H        -4.304968         0.236266        -2.479214
 H        -4.678263         1.007109        -0.964156
 H        -2.735799        -1.309010        -3.011068
 H        -1.047572        -0.708697        -2.639868
 H        -3.092768        -1.815313        -0.545781
 H        -1.240890        -1.865040         1.120733
 H        -0.205758        -2.160951        -0.431662
 H        -2.079943         0.977368         0.614162
 H        -0.489216         1.869369         0.445263
