19
Iteration:  4441
 C        -3.805622         0.672712        -2.132351
 C        -2.534524         0.223475        -1.415405
 C        -1.548313        -0.558396        -2.275062
 C        -2.265795        -1.140005        -0.937364
 C        -1.450951        -1.227980         0.305938
 C        -0.264738        -0.206090         0.271374
 O         0.886647        -0.549073         0.537392
 C        -0.733851         1.222499        -0.103196
 O        -2.078060         1.216804        -0.428809
 H        -3.969356        -0.122077        -2.885206
 H        -4.664248         0.789743        -1.524930
 H        -3.640499         1.658716        -2.769716
 H        -2.083339        -0.923946        -3.160266
 H        -0.492558        -0.550000        -2.390599
 H        -3.050968        -1.892113        -0.942013
 H        -2.085299        -0.891170         1.165213
 H        -0.904627        -2.091692         0.388415
 H        -0.513337         1.795520         0.873379
 H        -0.107880         1.729297        -0.883833
