19
Iteration:    34charge 0 multiplicity 1
 C        -3.999493         0.480761        -1.223124
 C        -2.525210         0.150851        -1.477339
 C        -2.368230        -1.125123        -2.205103
 C        -2.066584        -1.095812        -0.759761
 C        -0.599295        -1.137801        -0.520840
 C        -0.271585        -0.027356         0.435063
 O         0.108896        -0.097088         1.597589
 C        -0.487671         1.271715        -0.492060
 O        -1.520366         1.245148        -1.570758
 H        -4.209025         0.197806        -0.196383
 H        -4.286995         1.518450        -1.371404
 H        -4.696889        -0.118472        -1.852926
 H        -3.345932        -1.520119        -2.404112
 H        -1.566129        -1.448316        -2.899470
 H        -2.673701        -1.681927        -0.158673
 H        -0.374170        -2.086988        -0.066731
 H         0.052944        -0.997492        -1.386427
 H        -0.733845         2.157067         0.057279
 H         0.409964         1.446217        -1.064238
