19
Iteration:   284
 C        -3.951367         0.816119        -1.258605
 C        -2.590189         0.069748        -1.443363
 C        -2.163259        -0.978964        -2.409008
 C        -2.047127        -1.341252        -0.943223
 C        -0.788607        -1.454547        -0.092327
 C        -0.298293        -0.003898         0.374837
 O         0.549588         0.148656         1.253445
 C        -0.970621         1.273979        -0.248343
 O        -1.525081         1.054542        -1.472956
 H        -4.486384         0.565983        -0.346041
 H        -3.689849         1.882340        -1.341733
 H        -4.668603         0.546547        -2.122606
 H        -2.842008        -1.534488        -3.116021
 H        -1.234379        -0.919197        -2.987863
 H        -2.859968        -1.900906        -0.618959
 H        -0.874350        -2.079258         0.812139
 H         0.011327        -1.989725        -0.657706
 H        -1.710165         1.573403         0.574807
 H        -0.134317         2.067498        -0.287698
