19
Iteration:  1427
 C        -3.692304         0.990935        -0.850618
 C        -2.456152         0.146869        -1.429602
 C        -2.521695        -1.041066        -2.412411
 C        -1.915128        -1.296618        -1.009574
 C        -0.412119        -1.271343        -0.639240
 C        -0.399401        -0.089243         0.380866
 O        -0.282853        -0.154759         1.582837
 C        -0.766106         1.314491        -0.333963
 O        -1.304217         0.991205        -1.587489
 H        -3.402187         2.047921        -1.139246
 H        -4.534497         0.674590        -1.507066
 H        -3.835610         0.937234         0.266263
 H        -3.499913        -1.612802        -2.460690
 H        -2.020438        -1.024317        -3.400806
 H        -2.388630        -1.938978        -0.252710
 H        -0.092857        -2.140305        -0.119627
 H         0.311939        -1.058201        -1.426676
 H        -1.258680         2.006069         0.349506
 H         0.235522         1.699790        -0.540066
