19
Iteration:  2764charge 0 multiplicity 1
 C        -3.834264         0.729143        -1.019049
 C        -2.511268         0.184793        -1.516262
 C        -2.337873        -0.934114        -2.524408
 C        -2.044778        -1.167187        -1.038602
 C        -0.688096        -1.279755        -0.389082
 C        -0.474570        -0.084412         0.492929
 O         0.230526        -0.153184         1.494034
 C        -0.807102         1.282473        -0.267577
 O        -1.322751         1.048820        -1.535985
 H        -4.415132         1.126505        -1.846925
 H        -4.538262        -0.091971        -0.688546
 H        -3.649599         1.386606        -0.161893
 H        -3.308393        -1.294237        -2.977311
 H        -1.483057        -0.871659        -3.313556
 H        -2.847730        -1.652096        -0.401166
 H        -0.642890        -2.185060         0.197009
 H         0.166275        -1.161538        -1.031502
 H        -1.425568         1.904830         0.511107
 H         0.179808         1.765136        -0.313462
