19
Iteration:  3134charge 0 multiplicity 1
 C        -3.807629         0.750614        -1.971464
 C        -2.534156         0.229867        -1.404632
 C        -1.670370        -0.822285        -2.159189
 C        -2.229077        -1.208255        -0.803441
 C        -1.215136        -1.372498         0.313458
 C        -0.376614        -0.144550         0.371993
 O         0.846956        -0.271392         0.206711
 C        -1.163437         1.114041         0.321294
 O        -1.634294         1.350555        -0.972265
 H        -3.635452         1.844947        -1.975237
 H        -3.874790         0.432110        -3.043701
 H        -4.669285         0.510824        -1.347524
 H        -2.345146        -1.056146        -2.987558
 H        -0.582807        -0.796039        -2.357666
 H        -3.048347        -1.885813        -0.847944
 H        -1.789070        -1.602813         1.195994
 H        -0.661147        -2.328935         0.034228
 H        -1.987660         1.090119         1.112531
 H        -0.653873         1.997717         0.593863
