19
Iteration:  3765charge 0 multiplicity 1
 C        -3.870070         0.744272        -1.335904
 C        -2.436782         0.268076        -1.551211
 C        -2.113625        -0.746800        -2.542070
 C        -2.246416        -1.140526        -1.105371
 C        -0.912635        -1.433744        -0.353105
 C        -0.339568        -0.221170         0.478647
 O         0.500930        -0.297045         1.350571
 C        -0.886143         1.210586         0.060239
 O        -1.467874         1.239465        -1.273269
 H        -4.612874         0.343009        -2.030661
 H        -4.142875         0.550955        -0.356648
 H        -3.976383         1.835441        -1.566102
 H        -2.918258        -0.929401        -3.213039
 H        -1.092066        -0.775949        -2.931452
 H        -3.042633        -1.794880        -0.803791
 H        -0.869707        -2.396710         0.228174
 H        -0.127455        -1.471119        -1.162086
 H        -1.708766         1.405201         0.861696
 H        -0.183736         2.016113         0.088147
