19
Iteration:  3484charge 0 multiplicity 1
 C        -3.717226         0.782463        -0.983247
 C        -2.424644         0.218812        -1.448602
 C        -2.393837        -0.848216        -2.518922
 C        -2.068774        -1.167553        -1.103017
 C        -0.580428        -1.295021        -0.635687
 C        -0.363747        -0.088163         0.408285
 O        -0.001211        -0.233753         1.577420
 C        -0.894432         1.185349        -0.143999
 O        -1.284358         1.071039        -1.482506
 H        -3.728641         1.891725        -1.156916
 H        -4.481407         0.166736        -1.446706
 H        -3.783982         0.686825         0.159128
 H        -3.340759        -1.214509        -2.894686
 H        -1.601638        -0.806615        -3.183039
 H        -2.820720        -1.695312        -0.467009
 H        -0.436008        -2.300999        -0.166967
 H         0.159568        -1.165998        -1.432020
 H        -1.740370         1.600287         0.516362
 H        -0.158536         2.014597        -0.182910
