19
Iteration:  3554
 C        -3.943311         0.563162        -1.069630
 C        -2.445680         0.286328        -1.391941
 C        -2.387546        -0.766403        -2.555931
 C        -1.989894        -1.160589        -1.151427
 C        -0.570786        -1.297090        -0.617137
 C        -0.343647        -0.214992         0.405750
 O        -0.227648        -0.174879         1.642900
 C        -0.318810         1.117233        -0.383780
 O        -1.475099         1.302964        -1.202246
 H        -4.548862         0.602347        -1.985174
 H        -4.251634        -0.304490        -0.341183
 H        -4.113497         1.539853        -0.663570
 H        -3.299914        -1.285538        -2.958552
 H        -1.578894        -0.541504        -3.360927
 H        -2.733986        -1.709653        -0.561196
 H        -0.451625        -2.273899        -0.058600
 H         0.164037        -1.282290        -1.525351
 H        -0.430850         1.712803         0.506377
 H         0.650959         1.201593        -0.756220
