19
Iteration:  4117charge 0 multiplicity 1
 C        -4.004840         0.689316        -1.783949
 C        -2.614441         0.298699        -1.487381
 C        -1.899598        -0.599300        -2.499637
 C        -2.175055        -1.088560        -1.107750
 C        -1.073400        -1.370891         0.008203
 C        -0.250062        -0.239995         0.472560
 O         0.722184        -0.378028         1.224750
 C        -0.537007         1.061332        -0.289551
 O        -1.916847         1.323339        -0.764661
 H        -4.613935         0.001372        -2.355473
 H        -4.645713         0.744698        -0.907845
 H        -4.222682         1.670531        -2.296022
 H        -2.550216        -0.900645        -3.294182
 H        -0.842733        -0.440193        -2.754357
 H        -3.028145        -1.760945        -1.116542
 H        -1.596745        -1.983363         0.716843
 H        -0.359500        -2.158778        -0.341921
 H        -0.470209         1.768801         0.446849
 H         0.280819         0.962269        -1.022901
