19
Iteration:  3054
 C        -3.797780         0.834946        -1.617431
 C        -2.479845         0.163769        -1.504556
 C        -1.947927        -0.834628        -2.408009
 C        -2.206379        -1.234953        -0.911728
 C        -1.088362        -1.352393         0.059150
 C        -0.369657        -0.133459         0.448492
 O         0.809179        -0.165645         0.774293
 C        -1.183562         1.162847         0.188030
 O        -1.484904         1.190641        -1.222210
 H        -4.042592         1.321805        -2.598817
 H        -4.626425         0.061959        -1.438354
 H        -4.012744         1.628532        -0.870187
 H        -2.632991        -1.407011        -3.066984
 H        -1.009461        -0.815055        -2.900567
 H        -3.095883        -1.804324        -0.655891
 H        -1.492898        -1.775693         1.041131
 H        -0.334008        -2.090237        -0.237758
 H        -2.168363         1.052081         0.717584
 H        -0.685233         2.188361         0.278975
