19
Iteration:  2968charge 0 multiplicity 1
 C        -3.913586         0.732885        -1.293513
 C        -2.526007         0.230426        -1.482797
 C        -2.268060        -0.957465        -2.418767
 C        -2.126928        -1.175472        -0.960689
 C        -0.643544        -1.268169        -0.413612
 C        -0.320968        -0.146657         0.402793
 O         0.182299        -0.191238         1.504095
 C        -0.741111         1.251948        -0.200586
 O        -1.434954         1.150803        -1.429952
 H        -4.247854         1.536253        -1.964636
 H        -4.533107        -0.203899        -1.313900
 H        -3.911105         1.253350        -0.331773
 H        -3.196722        -1.324937        -2.895452
 H        -1.351875        -0.818382        -2.966273
 H        -2.769765        -1.775057        -0.316005
 H        -0.490501        -2.209142         0.193479
 H         0.035476        -1.384538        -1.293332
 H        -1.103419         1.843826         0.654029
 H         0.271126         1.750270        -0.382549
