19
Iteration:   940charge 0 multiplicity 1
 C        -3.647748         0.911694        -1.091559
 C        -2.422098         0.103582        -1.364364
 C        -2.549482        -1.181860        -2.223135
 C        -1.868886        -1.222315        -0.911941
 C        -0.297908        -1.142220        -0.796376
 C        -0.407258        -0.108089         0.340870
 O        -0.268725        -0.241007         1.570034
 C        -0.840630         1.299672        -0.217631
 O        -1.350152         1.149018        -1.573944
 H        -3.983167         1.473788        -2.057046
 H        -4.564283         0.264306        -0.860476
 H        -3.640657         1.636146        -0.227822
 H        -3.557844        -1.446976        -2.303627
 H        -2.049947        -1.444453        -3.166163
 H        -2.441380        -1.636705        -0.051677
 H        -0.044790        -2.119301        -0.442617
 H         0.163274        -0.796376        -1.778729
 H        -1.493771         1.679616         0.559061
 H         0.096151         1.959871        -0.276121
