19
Iteration:   114
 C        -3.723509         0.524477        -0.626530
 C        -2.467964         0.091544        -1.449815
 C        -2.369390        -1.026500        -2.379112
 C        -1.884499        -1.246006        -0.988118
 C        -0.595214        -1.223931        -0.316892
 C        -0.393574         0.111480         0.357548
 O        -0.308518         0.157576         1.553070
 C        -0.495431         1.223281        -0.707677
 O        -1.474104         1.048020        -1.734507
 H        -4.526888        -0.021586        -1.106808
 H        -3.653754         0.132537         0.387626
 H        -3.952887         1.608836        -0.690941
 H        -3.380287        -1.575540        -2.466494
 H        -1.743175        -0.973877        -3.286718
 H        -2.664337        -1.877237        -0.419447
 H        -0.465406        -2.086322         0.400570
 H         0.236003        -1.310437        -1.054814
 H        -0.561829         2.255446        -0.247201
 H         0.550960         1.150526        -1.132637
