19
Iteration:   239charge 0 multiplicity 1
 C        -4.008690         0.545735        -1.419460
 C        -2.494774         0.177368        -1.406659
 C        -2.450886        -1.164010        -2.208764
 C        -2.110083        -1.133400        -0.744165
 C        -0.594601        -1.203367        -0.515096
 C        -0.309968        -0.024007         0.390479
 O         0.316387        -0.019688         1.457284
 C        -0.711151         1.355947        -0.224016
 O        -1.398004         1.094154        -1.497422
 H        -4.550032        -0.433643        -1.394303
 H        -4.299531         1.137004        -0.535761
 H        -4.241227         1.104210        -2.369870
 H        -3.446622        -1.498707        -2.532137
 H        -1.732276        -1.431927        -2.938897
 H        -2.648292        -1.601052         0.006711
 H        -0.187643        -2.138351        -0.179155
 H        -0.140683        -0.981633        -1.526228
 H        -1.250833         2.066597         0.485988
 H         0.152122         1.970661        -0.672521
