19
Iteration:  3191charge 0 multiplicity 1
 C        -3.756588         0.602017        -2.049895
 C        -2.525343         0.197041        -1.370442
 C        -1.655685        -0.733869        -2.203118
 C        -2.304983        -1.173659        -0.911478
 C        -1.268920        -1.339816         0.256301
 C        -0.302824        -0.139045         0.213767
 O         0.870771        -0.478581         0.372978
 C        -0.890179         1.325390         0.192803
 O        -1.976988         1.408894        -0.702536
 H        -3.640606         1.655588        -2.386713
 H        -3.967232        -0.041613        -2.845155
 H        -4.572532         0.422921        -1.313315
 H        -1.979264        -1.080704        -3.209373
 H        -0.572933        -0.680944        -2.093258
 H        -3.182996        -1.955151        -0.784771
 H        -1.734100        -1.196624         1.220645
 H        -0.681335        -2.289398         0.220419
 H        -1.220023         1.433282         1.274923
 H        -0.113134         2.023914        -0.191468
