19
Iteration:  4305charge 0 multiplicity 1
 C        -3.963745         0.719742        -1.891098
 C        -2.593097         0.242892        -1.452663
 C        -1.774808        -0.613039        -2.429634
 C        -2.167259        -1.172289        -1.096631
 C        -1.295712        -1.404892         0.169976
 C        -0.295193        -0.312527         0.473513
 O         0.869903        -0.385148         0.824592
 C        -0.696469         1.170344         0.063142
 O        -1.872104         1.360981        -0.877811
 H        -4.617150        -0.183871        -2.078040
 H        -4.368701         1.212794        -0.898936
 H        -3.838344         1.479724        -2.642067
 H        -2.306378        -1.126781        -3.280991
 H        -0.740832        -0.244535        -2.565821
 H        -2.981915        -1.872912        -1.128971
 H        -1.982105        -1.513889         1.037722
 H        -0.617399        -2.350022         0.196385
 H        -0.999959         1.770293         0.909633
 H         0.111800         1.682792        -0.571879
