19
Iteration:  3391charge 0 multiplicity 1
 C        -3.989271         0.629989        -1.415779
 C        -2.503643         0.225578        -1.503822
 C        -2.235078        -0.778594        -2.550326
 C        -2.158579        -1.074851        -1.009101
 C        -0.786661        -1.437220        -0.335837
 C        -0.307868        -0.226771         0.446360
 O         0.481334        -0.250517         1.384010
 C        -0.751023         1.176299        -0.041586
 O        -1.522062         1.365780        -1.257152
 H        -3.996506         1.672488        -1.267458
 H        -4.578281         0.379092        -2.346287
 H        -4.536288         0.236371        -0.612928
 H        -3.169359        -1.286889        -2.918992
 H        -1.255631        -0.612762        -3.016941
 H        -2.994031        -1.630822        -0.688776
 H        -0.876059        -2.270199         0.348348
 H        -0.092754        -1.753480        -1.095246
 H        -1.149925         1.767671         0.772210
 H         0.274048         1.518803        -0.115680
