19
Iteration:  1077
 C        -3.919669         0.655625        -1.592728
 C        -2.513706         0.156606        -1.545210
 C        -1.836443        -0.881266        -2.460490
 C        -2.204864        -1.223471        -1.049826
 C        -1.303556        -1.296975         0.237267
 C        -0.274058        -0.107204         0.396686
 O         0.914430        -0.227739         0.780109
 C        -0.930361         1.267364         0.104143
 O        -1.700243         1.263618        -1.132509
 H        -3.973387         1.430334        -2.286342
 H        -4.542376        -0.073088        -2.029573
 H        -4.227949         0.946271        -0.584879
 H        -2.427317        -1.213228        -3.278978
 H        -0.834862        -0.550389        -2.769915
 H        -3.007092        -1.973498        -0.991793
 H        -2.049274        -1.101806         1.139859
 H        -0.882437        -2.266717         0.510904
 H        -1.386807         1.519766         1.070729
 H        -0.104256         1.892433        -0.071550
