19
Iteration:   652charge 0 multiplicity 1
 C        -4.045406         0.689984        -1.437817
 C        -2.644336         0.134865        -1.534069
 C        -1.889285        -0.788309        -2.394440
 C        -2.134946        -1.161380        -0.928076
 C        -1.032315        -1.394967         0.047419
 C        -0.287067        -0.066695         0.375138
 O         0.834535        -0.060630         0.913763
 C        -1.083398         1.201124         0.062833
 O        -1.539404         1.075536        -1.346232
 H        -4.112976         1.719167        -1.819593
 H        -4.634626         0.021205        -2.096476
 H        -4.479643         0.701191        -0.373384
 H        -2.276889        -1.446557        -3.227409
 H        -0.838331        -0.417492        -2.588655
 H        -2.963536        -1.866391        -0.777703
 H        -1.306968        -1.759415         1.116497
 H        -0.110379        -1.991825        -0.301334
 H        -1.925104         1.366586         0.768491
 H        -0.474269         2.092905         0.073701
