19
Iteration:  2617
 C        -3.961039         0.697855        -1.586523
 C        -2.557790         0.178298        -1.485401
 C        -1.620011        -0.690825        -2.312981
 C        -2.119726        -1.223226        -1.001766
 C        -1.223203        -1.389407         0.220463
 C        -0.370926        -0.140064         0.282802
 O         0.821050        -0.313320         0.636920
 C        -1.056455         1.210098         0.160252
 O        -1.675344         1.252225        -1.147084
 H        -4.194968         1.229722        -2.540679
 H        -4.713699        -0.031081        -1.380432
 H        -3.993376         1.552428        -0.875626
 H        -2.042301        -1.233327        -3.122299
 H        -0.590307        -0.362851        -2.326021
 H        -2.953482        -1.905437        -1.141498
 H        -2.021835        -1.276831         0.989366
 H        -0.616814        -2.286427         0.164261
 H        -1.771220         1.506402         0.991056
 H        -0.326663         2.098246         0.226227
