19
Iteration:   146charge 0 multiplicity 1
 C        -3.628077         0.473169        -0.581692
 C        -2.464837         0.015860        -1.469460
 C        -2.563259        -1.005955        -2.457301
 C        -1.989242        -1.320201        -1.081072
 C        -0.622188        -1.266307        -0.465200
 C        -0.416975         0.162044         0.358025
 O        -0.226478         0.365966         1.569324
 C        -0.617259         1.332790        -0.500527
 O        -1.230513         0.840426        -1.729225
 H        -4.525510         0.392055        -1.133981
 H        -3.670297        -0.011147         0.375707
 H        -3.504868         1.536542        -0.304977
 H        -3.581258        -1.350617        -2.907023
 H        -1.848183        -0.937204        -3.287282
 H        -2.656040        -1.877518        -0.361547
 H        -0.565603        -2.074408         0.318386
 H         0.257259        -1.389267        -1.105606
 H        -1.177302         2.071816         0.079492
 H         0.377191         1.679498        -0.599566
