19
Iteration:  3660
 C        -3.927462         0.727034        -1.121177
 C        -2.477949         0.246962        -1.482602
 C        -2.321046        -0.749782        -2.599083
 C        -2.060163        -1.148627        -1.115158
 C        -0.642655        -1.262139        -0.514618
 C        -0.453511        -0.178135         0.491390
 O         0.150937        -0.421183         1.532228
 C        -0.803079         1.301961        -0.049907
 O        -1.266713         1.129923        -1.452355
 H        -4.335220        -0.204970        -0.701231
 H        -3.943042         1.495881        -0.284331
 H        -4.494733         1.186415        -1.960925
 H        -3.184906        -1.040181        -3.147009
 H        -1.393127        -0.594510        -3.114067
 H        -2.627972        -1.756009        -0.433856
 H        -0.451865        -2.250476        -0.094658
 H         0.168506        -1.114652        -1.240671
 H        -1.643481         1.735120         0.644521
 H         0.171076         1.977898        -0.089335
