19
Iteration:  3420charge 0 multiplicity 1
 C        -3.893795         0.888443        -1.172361
 C        -2.505550         0.173719        -1.404844
 C        -2.146150        -0.823474        -2.507509
 C        -2.140535        -1.235423        -1.058110
 C        -0.709920        -1.325570        -0.408523
 C        -0.292899        -0.107626         0.341910
 O         0.291731        -0.276532         1.403695
 C        -0.951094         1.212666        -0.111219
 O        -1.399307         1.119115        -1.388693
 H        -3.825407         1.999412        -1.063079
 H        -4.617376         0.788561        -2.009084
 H        -4.472962         0.460154        -0.289191
 H        -2.929582        -1.283938        -3.078166
 H        -1.189072        -0.563083        -2.825829
 H        -2.929139        -1.952354        -0.733845
 H        -0.525132        -2.244320         0.219432
 H         0.003857        -1.409438        -1.315789
 H        -1.717442         1.412772         0.705544
 H        -0.209881         1.943727         0.158071
