19
Iteration:  1615charge 0 multiplicity 1
 C        -3.777817         1.047505        -1.400587
 C        -2.646594         0.088436        -1.533092
 C        -2.347956        -1.134447        -2.423310
 C        -2.141290        -1.178853        -0.857121
 C        -0.642214        -1.167387        -0.453248
 C        -0.359608        -0.094271         0.524113
 O         0.492591        -0.141427         1.396695
 C        -0.977540         1.129303        -0.017744
 O        -1.429171         0.974261        -1.425742
 H        -3.630830         2.018098        -2.034068
 H        -4.787690         0.680443        -1.785349
 H        -3.879744         1.465932        -0.377666
 H        -3.236068        -1.497916        -2.962962
 H        -1.452812        -0.907169        -2.943817
 H        -2.813873        -1.850915        -0.262677
 H        -0.160917        -2.192955        -0.331670
 H        -0.185458        -0.771006        -1.362087
 H        -1.771738         1.587637         0.638952
 H        -0.191587         1.875694        -0.013970
