19
Iteration:  4595
 C        -4.101501         0.749976        -1.850196
 C        -2.589877         0.307347        -1.453547
 C        -1.688416        -0.504272        -2.371907
 C        -2.197147        -1.079341        -0.989625
 C        -1.175103        -1.479161        -0.002909
 C        -0.290331        -0.294375         0.386345
 O         0.692127        -0.369282         1.107648
 C        -0.514462         0.993776        -0.352937
 O        -1.951610         1.332496        -0.714519
 H        -4.597909        -0.086547        -2.399027
 H        -4.555916         0.809923        -0.904092
 H        -4.029028         1.771703        -2.357931
 H        -2.134358        -0.999211        -3.281170
 H        -0.613432        -0.158303        -2.446125
 H        -2.882274        -1.869935        -0.876196
 H        -1.543797        -1.899114         0.946317
 H        -0.451903        -2.193897        -0.369238
 H        -0.415687         1.844057         0.362986
 H         0.233170         1.075947        -1.166529
