19
Iteration:  2239charge 0 multiplicity 1
 C        -3.708431         0.822537        -0.803715
 C        -2.463129         0.143111        -1.405230
 C        -2.381650        -1.025588        -2.484952
 C        -1.864107        -1.291047        -1.104706
 C        -0.484062        -1.303602        -0.443815
 C        -0.532748        -0.065357         0.405393
 O        -0.218841        -0.137155         1.573542
 C        -0.680708         1.277170        -0.395229
 O        -1.394868         1.163840        -1.611927
 H        -4.346596         1.254636        -1.588675
 H        -4.221689         0.058599        -0.283433
 H        -3.508539         1.622746        -0.120571
 H        -3.308616        -1.502648        -2.755705
 H        -1.785520        -0.775562        -3.396661
 H        -2.653620        -2.005767        -0.726523
 H        -0.339314        -2.188963         0.178560
 H         0.288782        -1.204607        -1.304675
 H        -1.102287         2.013238         0.310400
 H         0.342061         1.644672        -0.750622
