19
Iteration:  4644
 C        -3.958107         0.687698        -1.571093
 C        -2.491544         0.286101        -1.456809
 C        -1.799788        -0.544106        -2.567573
 C        -2.115566        -1.135625        -1.253563
 C        -1.279401        -1.344653         0.051762
 C        -0.243620        -0.189713         0.262587
 O         0.480178        -0.371080         1.207415
 C        -0.480103         1.107517        -0.417087
 O        -1.833662         1.166605        -0.602739
 H        -4.514113        -0.179634        -1.885063
 H        -4.354517         1.046115        -0.549468
 H        -3.968946         1.476038        -2.275206
 H        -2.427435        -0.919952        -3.307620
 H        -0.771890        -0.349681        -2.863126
 H        -2.829209        -1.991855        -1.210256
 H        -1.963685        -1.213757         0.888981
 H        -0.642002        -2.222859         0.295794
 H        -0.260238         1.921399         0.247342
 H        -0.015648         1.325900        -1.412943
