19
Iteration:  1250
 C        -3.878361         0.583958        -1.867652
 C        -2.457342         0.225120        -1.450199
 C        -1.675507        -0.806789        -2.217450
 C        -2.285481        -1.094784        -0.861171
 C        -1.362210        -1.250345         0.371866
 C        -0.319531        -0.166981         0.342315
 O         0.892013        -0.353428         0.309588
 C        -1.078396         1.225019         0.271658
 O        -1.592882         1.312149        -1.060404
 H        -3.953646         1.571368        -2.341514
 H        -4.192502        -0.287504        -2.479999
 H        -4.576859         0.633719        -0.920131
 H        -2.258232        -1.235237        -3.021191
 H        -0.630076        -0.626366        -2.356708
 H        -3.259018        -1.609583        -0.905815
 H        -1.991418        -1.161618         1.213933
 H        -0.881870        -2.207159         0.399875
 H        -1.839823         1.106509         1.120288
 H        -0.316858         1.928602         0.371544
