19
Iteration:  3929charge 0 multiplicity 1
 C        -3.710436         0.970182        -1.658647
 C        -2.412968         0.240893        -1.412685
 C        -2.200570        -0.782692        -2.508845
 C        -2.305225        -1.247518        -1.096880
 C        -0.929259        -1.416200        -0.185787
 C        -0.362358        -0.116889         0.452643
 O         0.814278        -0.179889         0.890188
 C        -1.306478         1.118556         0.393567
 O        -1.396644         1.029398        -1.049320
 H        -4.353554         0.407441        -2.421313
 H        -4.218206         1.170349        -0.718907
 H        -3.373247         1.985035        -2.248301
 H        -2.941370        -1.016204        -3.230229
 H        -1.221390        -0.587192        -3.027556
 H        -3.383565        -1.760612        -0.946020
 H        -1.056032        -2.172090         0.618222
 H        -0.109628        -1.927270        -0.723643
 H        -2.193928         1.026014         1.014956
 H        -0.899112         2.111507         0.592231
