19
Iteration:  2877
 C        -3.563223         0.707232        -0.593300
 C        -2.424277         0.128197        -1.348167
 C        -2.396723        -1.010706        -2.421187
 C        -1.941620        -1.276588        -1.004851
 C        -0.415580        -1.236575        -0.657517
 C        -0.527498        -0.051362         0.288925
 O        -0.675198        -0.083234         1.469292
 C        -0.487911         1.271176        -0.427271
 O        -1.301950         1.110509        -1.622922
 H        -3.717906         1.772345        -0.917285
 H        -4.497692         0.198218        -0.809762
 H        -3.353194         0.722062         0.499592
 H        -3.379276        -1.351700        -2.552801
 H        -1.599768        -1.039687        -3.102693
 H        -2.635205        -1.753588        -0.312352
 H        -0.036529        -2.161973        -0.231744
 H         0.259575        -0.866573        -1.446192
 H        -0.725851         2.166407         0.160765
 H         0.553525         1.529520        -0.716928
