19
Iteration:  3348charge 0 multiplicity 1
 C        -3.977640         0.693793        -1.537241
 C        -2.600857         0.227701        -1.414355
 C        -1.966553        -0.746278        -2.545313
 C        -2.189069        -1.183799        -1.026628
 C        -0.984264        -1.379268        -0.171672
 C        -0.250072        -0.160422         0.341213
 O         0.582974        -0.348481         1.246372
 C        -0.701577         1.233205        -0.111376
 O        -1.742008         1.308827        -1.044043
 H        -3.903772         1.724681        -1.734098
 H        -4.654465         0.302333        -2.347096
 H        -4.479626         0.579355        -0.611297
 H        -2.502816        -1.225426        -3.402330
 H        -0.931506        -0.476647        -2.590759
 H        -2.825084        -1.965623        -0.746110
 H        -1.233766        -1.976083         0.671334
 H        -0.285463        -1.943215        -0.690386
 H        -0.563428         1.870583         0.729859
 H         0.143184         1.557646        -0.760094
