19
Iteration:  4898charge 0 multiplicity 1
 C        -3.881753         0.711918        -1.926397
 C        -2.541171         0.316379        -1.440511
 C        -1.694847        -0.741133        -2.329643
 C        -2.276123        -1.113117        -0.936410
 C        -1.194020        -1.337083         0.155986
 C        -0.273191        -0.273018         0.298786
 O         0.816297        -0.532886         0.813937
 C        -0.740168         1.201858        -0.085098
 O        -2.002566         1.407693        -0.722592
 H        -4.197486         0.098902        -2.799458
 H        -4.699603         0.683991        -1.272632
 H        -3.897039         1.885945        -2.165826
 H        -2.164478        -1.054105        -3.259959
 H        -0.510455        -0.522892        -2.494245
 H        -3.004078        -1.918940        -1.130647
 H        -1.760085        -1.608754         1.029123
 H        -0.586878        -2.241073        -0.063726
 H        -0.805813         1.900194         0.791602
 H         0.002135         1.618448        -0.761585
