19
Iteration:  2915charge 0 multiplicity 1
 C        -3.569482         0.806412        -0.651195
 C        -2.408421         0.131572        -1.442214
 C        -2.483937        -0.904598        -2.505491
 C        -1.878063        -1.176896        -1.134676
 C        -0.450333        -1.239176        -0.477971
 C        -0.503111        -0.088504         0.382295
 O        -0.325273        -0.095628         1.572729
 C        -0.834344         1.281050        -0.366106
 O        -1.257974         0.930979        -1.689745
 H        -3.361898         1.810263        -0.985037
 H        -4.567156         0.497280        -1.054503
 H        -3.593157         0.834802         0.438857
 H        -3.434654        -1.494277        -2.736962
 H        -2.007325        -0.934578        -3.510234
 H        -2.466850        -1.891140        -0.575230
 H        -0.327507        -2.105549         0.211705
 H         0.352106        -1.290540        -1.243212
 H        -1.633467         1.626062         0.280866
 H         0.074258         1.890731        -0.455667
