19
Iteration:  4119
 C        -4.008015         0.696521        -1.793289
 C        -2.619009         0.293585        -1.477791
 C        -1.894309        -0.569658        -2.521396
 C        -2.175754        -1.103508        -1.088115
 C        -1.082167        -1.381943        -0.004182
 C        -0.239720        -0.240836         0.470579
 O         0.733018        -0.381111         1.247295
 C        -0.548260         1.053840        -0.310174
 O        -1.919224         1.324087        -0.759260
 H        -4.620944        -0.037274        -2.367261
 H        -4.692847         0.757866        -0.851718
 H        -4.257059         1.617320        -2.310853
 H        -2.532258        -0.947168        -3.277361
 H        -0.820496        -0.413922        -2.810748
 H        -2.985672        -1.694582        -1.134284
 H        -1.636797        -1.921848         0.788317
 H        -0.371285        -2.239210        -0.285419
 H        -0.403369         1.827311         0.407007
 H         0.290338         1.023283        -1.087541
