19
Iteration:  2857
 C        -3.651439         0.653373        -0.694113
 C        -2.427310         0.219954        -1.349071
 C        -2.411184        -0.980762        -2.376499
 C        -1.887857        -1.209234        -0.902523
 C        -0.395939        -1.200107        -0.675000
 C        -0.384146        -0.060957         0.332654
 O        -0.770740        -0.153800         1.468561
 C        -0.335004         1.226735        -0.530069
 O        -1.390275         1.141836        -1.535010
 H        -4.161849         1.425779        -1.317630
 H        -4.432248        -0.110246        -0.676308
 H        -3.439160         0.955106         0.358074
 H        -3.315286        -1.428643        -2.605428
 H        -1.636640        -0.884827        -3.103914
 H        -2.584612        -1.738966        -0.228117
 H        -0.076335        -2.151649        -0.078270
 H         0.034833        -1.120399        -1.687449
 H        -0.382715         2.128928         0.064483
 H         0.635009         1.361116        -1.166320
