19
Iteration:  1728charge 0 multiplicity 1
 C        -4.001378         0.605225        -1.521292
 C        -2.531202         0.146097        -1.502924
 C        -1.852443        -0.689672        -2.521306
 C        -2.067920        -1.253823        -1.119222
 C        -1.414344        -1.237744         0.257700
 C        -0.297546        -0.108297         0.337364
 O         0.784172        -0.342528         0.799905
 C        -0.798186         1.302189         0.102534
 O        -1.563762         1.195988        -1.116710
 H        -4.104775         1.093521        -2.524048
 H        -4.635765        -0.318590        -1.381723
 H        -4.182867         1.326131        -0.592863
 H        -2.517936        -1.305319        -3.205536
 H        -0.866494        -0.310057        -2.832976
 H        -2.899011        -1.922619        -1.116808
 H        -2.170132        -0.873995         0.955819
 H        -0.994976        -2.155033         0.620825
 H        -1.447210         1.612471         0.979869
 H         0.050610         2.055850        -0.080041
