19
Iteration:  3809charge 0 multiplicity 1
 C        -3.929639         0.725253        -1.274728
 C        -2.519671         0.236639        -1.490684
 C        -1.964841        -0.537254        -2.607306
 C        -2.103836        -1.224619        -1.238993
 C        -1.100487        -1.456832        -0.133648
 C        -0.285392        -0.188037         0.390952
 O         0.558117        -0.354306         1.343739
 C        -0.800533         1.188556        -0.125257
 O        -1.599596         1.267745        -1.217169
 H        -4.587913         0.020213        -1.785974
 H        -4.065355         0.795571        -0.256287
 H        -4.101810         1.710833        -1.850648
 H        -2.509724        -1.145165        -3.340610
 H        -1.062059        -0.145360        -2.962924
 H        -3.038412        -1.816356        -1.160031
 H        -1.515572        -1.893051         0.792171
 H        -0.298335        -2.238706        -0.216830
 H        -1.578159         1.415029         0.762245
 H         0.064100         1.788795        -0.089247
