19
Iteration:  4409charge 0 multiplicity 1
 C        -3.850445         0.824705        -2.156409
 C        -2.672232         0.188073        -1.434427
 C        -1.521445        -0.536085        -2.145921
 C        -2.230453        -1.257853        -0.955397
 C        -1.433620        -1.255238         0.313272
 C        -0.183462        -0.272619         0.258869
 O         0.987941        -0.483565         0.581611
 C        -0.752739         1.120207        -0.153054
 O        -2.127924         1.239817        -0.501970
 H        -4.088647         0.271243        -3.084995
 H        -4.758327         0.842281        -1.640923
 H        -3.639053         1.894734        -2.542338
 H        -1.816073        -0.900252        -3.159704
 H        -0.458823        -0.372608        -2.097936
 H        -2.935867        -2.072435        -1.090639
 H        -2.017017        -0.758627         1.170397
 H        -1.306185        -2.157186         0.802618
 H        -0.615996         1.813947         0.766774
 H        -0.208645         1.621669        -0.948286
