19
Iteration:  2399charge 0 multiplicity 1
 C        -3.927629         0.651131        -1.488030
 C        -2.513611         0.195086        -1.611453
 C        -2.052508        -0.939880        -2.552342
 C        -2.261409        -1.119010        -1.107710
 C        -1.096149        -1.268733        -0.081351
 C        -0.218013        -0.090418         0.437212
 O         0.829564        -0.152320         1.065591
 C        -0.987871         1.239060         0.179790
 O        -1.483080         1.124752        -1.187151
 H        -4.163867         1.497776        -2.210887
 H        -4.689098        -0.193320        -1.523690
 H        -4.120993         1.090209        -0.474265
 H        -2.932165        -1.364458        -3.127120
 H        -1.076245        -0.841262        -3.032485
 H        -3.180449        -1.703638        -0.845450
 H        -1.735097        -1.422000         0.850865
 H        -0.466384        -2.150259        -0.001716
 H        -1.814687         1.318880         0.971294
 H        -0.468631         2.234712         0.176092
