19
Iteration:  2015
 C        -3.837147         0.756556        -1.609703
 C        -2.513082         0.185852        -1.603228
 C        -2.173456        -1.046960        -2.468268
 C        -2.262017        -1.029803        -0.883843
 C        -1.013166        -1.294324        -0.168259
 C        -0.285348        -0.084493         0.452736
 O         0.764761        -0.182976         1.086482
 C        -0.963508         1.200040         0.139517
 O        -1.522075         1.141588        -1.199675
 H        -3.848402         1.569529        -2.312061
 H        -4.563458         0.066187        -1.980089
 H        -4.129610         1.143242        -0.630961
 H        -3.053675        -1.323893        -3.006551
 H        -1.200749        -1.127934        -2.946419
 H        -3.162619        -1.568340        -0.493089
 H        -1.057041        -2.052689         0.742853
 H        -0.164126        -1.685547        -0.831669
 H        -1.684391         1.416418         0.954645
 H        -0.248729         2.015088         0.166093
