19
Iteration:   227
 C        -3.897032         0.521483        -1.353157
 C        -2.466596         0.151508        -1.342858
 C        -2.549053        -1.157263        -2.182894
 C        -2.094517        -1.163650        -0.699244
 C        -0.573433        -1.172013        -0.648434
 C        -0.269328         0.070162         0.365578
 O         0.184107        -0.016440         1.499473
 C        -0.714251         1.331755        -0.276071
 O        -1.343712         1.089631        -1.560126
 H        -4.457632        -0.353124        -1.795273
 H        -4.454554         0.671716        -0.404140
 H        -4.167191         1.316145        -2.061713
 H        -3.513873        -1.454070        -2.451982
 H        -1.747313        -1.358617        -2.824953
 H        -2.753226        -1.557255         0.052327
 H        -0.192318        -2.055399        -0.185159
 H        -0.149342        -1.010819        -1.701280
 H        -1.406689         1.879896         0.433369
 H         0.353465         1.804673        -0.279717
