19
Iteration:  2156charge 0 multiplicity 1
 C        -3.724883         0.889148        -0.933771
 C        -2.512818         0.147088        -1.400599
 C        -2.343675        -0.988641        -2.335678
 C        -1.901242        -1.185665        -0.938558
 C        -0.411723        -1.296400        -0.568291
 C        -0.353817        -0.134681         0.422004
 O        -0.271001        -0.178515         1.633437
 C        -0.712044         1.182381        -0.453269
 O        -1.488026         1.151033        -1.695367
 H        -3.656648         1.956005        -1.290866
 H        -4.712886         0.466516        -1.240791
 H        -3.615311         0.812753         0.204079
 H        -3.182629        -1.571508        -2.679759
 H        -1.584658        -0.849008        -3.107956
 H        -2.586884        -1.711092        -0.255309
 H        -0.074673        -2.300917        -0.228257
 H         0.114976        -1.120095        -1.489911
 H        -1.089985         1.779761         0.446931
 H         0.217472         1.646392        -0.709394
