19
Iteration:  2710
 C        -3.823911         0.991725        -1.507166
 C        -2.575923         0.177518        -1.573208
 C        -2.243179        -1.040360        -2.425476
 C        -2.176764        -1.237728        -0.895473
 C        -0.737495        -1.317717        -0.280868
 C        -0.332080        -0.150297         0.454950
 O         0.684534        -0.065931         1.205494
 C        -1.161183         1.113408         0.081967
 O        -1.482405         1.115583        -1.331277
 H        -3.680616         2.046265        -1.739425
 H        -4.652579         0.495172        -2.103806
 H        -4.166237         1.046256        -0.462847
 H        -3.101698        -1.477243        -3.004904
 H        -1.155847        -1.076020        -2.866421
 H        -3.011742        -1.834577        -0.395433
 H        -0.530511        -2.191358         0.320421
 H         0.039234        -1.329644        -1.074332
 H        -1.822612         1.329846         0.942909
 H        -0.352931         1.789444         0.296799
