19
Iteration:   183charge 0 multiplicity 1
 C        -3.709835         0.875331        -0.843412
 C        -2.563146         0.021866        -1.385908
 C        -2.383384        -1.201247        -2.350184
 C        -1.859502        -1.306486        -0.911318
 C        -0.415301        -1.208977        -0.458912
 C        -0.400065         0.014543         0.337605
 O        -0.070377         0.077815         1.542466
 C        -0.900632         1.254909        -0.463955
 O        -1.475263         1.010238        -1.749275
 H        -4.674247         0.915554        -1.455821
 H        -3.980150         0.744674         0.239618
 H        -3.244414         1.840222        -0.964663
 H        -3.069587        -1.892371        -2.688975
 H        -1.556042        -0.967268        -3.020880
 H        -2.467839        -1.904159        -0.157160
 H        -0.298280        -1.980400         0.304121
 H         0.388901        -1.347629        -1.242820
 H        -1.481140         1.997042         0.212001
 H         0.061536         1.814999        -0.850789
