19
Iteration:  1838charge 0 multiplicity 1
 C        -3.775234         0.782335        -2.156884
 C        -2.472327         0.245317        -1.486777
 C        -1.948842        -1.035643        -2.303919
 C        -2.353286        -1.166275        -0.849274
 C        -1.208103        -1.276986         0.287999
 C        -0.177835        -0.117444         0.325113
 O         1.057127        -0.314570         0.422606
 C        -1.007152         1.263892         0.343814
 O        -1.862936         1.311090        -0.795664
 H        -3.631689         1.699797        -2.700666
 H        -4.369695         0.069310        -2.646250
 H        -4.507013         0.973172        -1.411900
 H        -2.552181        -1.538342        -3.073679
 H        -0.939141        -1.465603        -2.537431
 H        -3.195854        -1.793318        -0.676708
 H        -1.807769        -1.062706         1.197828
 H        -0.802666        -2.285779         0.373883
 H        -1.574298         1.153047         1.324991
 H        -0.213281         2.001516         0.349413
