19
Iteration:   266
 C        -3.933515         0.765099        -1.363655
 C        -2.608823         0.074160        -1.457072
 C        -2.226915        -1.147243        -2.364857
 C        -2.103578        -1.208602        -0.836573
 C        -0.657556        -1.277496        -0.267173
 C        -0.208787        -0.007876         0.411206
 O         0.487639        -0.000303         1.412166
 C        -0.851412         1.254104        -0.264191
 O        -1.658829         1.126039        -1.507130
 H        -4.560758         0.331534        -0.576397
 H        -3.692521         1.780284        -0.990577
 H        -4.420632         0.850630        -2.342410
 H        -3.024133        -1.729354        -2.837511
 H        -1.271452        -0.865675        -2.963060
 H        -2.815843        -1.945523        -0.262749
 H        -0.576404        -2.041209         0.568402
 H        -0.028997        -1.557068        -1.094600
 H        -1.432673         1.785304         0.512701
 H        -0.167065         1.987280        -0.625299
