19
Iteration:   877charge 0 multiplicity 1
 C        -3.709753         0.611669        -0.571634
 C        -2.495426         0.095627        -1.380448
 C        -2.273548        -0.817990        -2.584823
 C        -1.950159        -1.324666        -1.184191
 C        -0.505148        -1.296451        -0.496750
 C        -0.444179        -0.009712         0.405685
 O        -0.454078         0.073856         1.616935
 C        -0.453417         1.132413        -0.482807
 O        -1.468130         1.111671        -1.613632
 H        -4.205359         1.452089        -1.076014
 H        -4.326930        -0.270683        -0.411184
 H        -3.409041         0.892876         0.396636
 H        -3.215716        -1.212936        -2.992109
 H        -1.460975        -0.414523        -3.289988
 H        -2.612352        -2.054809        -0.648989
 H        -0.244074        -2.302293        -0.043430
 H         0.361845        -1.083550        -1.299890
 H        -0.520582         2.047453         0.104948
 H         0.520089         1.323427        -1.092310
