19
Iteration:  1604
 C        -3.745669         1.004853        -1.314263
 C        -2.522273         0.124824        -1.489431
 C        -2.365820        -1.043161        -2.396986
 C        -2.152534        -1.222452        -0.886002
 C        -0.592437        -1.259549        -0.505437
 C        -0.322921        -0.106017         0.427765
 O         0.351944        -0.100771         1.455575
 C        -0.977980         1.177142        -0.106648
 O        -1.459594         1.018705        -1.428723
 H        -3.538409         1.823054        -2.092321
 H        -4.739986         0.496462        -1.477765
 H        -3.768169         1.436737        -0.295466
 H        -3.253677        -1.554984        -2.802484
 H        -1.538782        -1.077213        -3.078948
 H        -2.877968        -1.847439        -0.327572
 H        -0.367335        -2.252777        -0.020242
 H        -0.010147        -1.145302        -1.415676
 H        -1.686641         1.480318         0.670049
 H        -0.156875         1.872713        -0.171264
