19
Iteration:  4726charge 0 multiplicity 1
 C        -3.951100         0.697793        -1.723885
 C        -2.567517         0.329992        -1.477170
 C        -1.924137        -0.698589        -2.506453
 C        -2.335352        -1.182365        -1.011388
 C        -1.100336        -1.388995        -0.209984
 C        -0.180910        -0.221604         0.354900
 O         0.600366        -0.428075         1.306618
 C        -0.484402         1.227687        -0.230822
 O        -1.821504         1.326586        -0.777899
 H        -4.370173        -0.032210        -2.448289
 H        -4.459427         0.698503        -0.796371
 H        -4.176295         1.666411        -2.283130
 H        -2.594259        -0.876705        -3.457679
 H        -0.859317        -0.629992        -2.826137
 H        -3.221417        -1.756760        -0.721161
 H        -1.443622        -1.918261         0.773875
 H        -0.378194        -2.271169        -0.497542
 H        -0.384873         1.930555         0.685929
 H         0.131864         1.677522        -1.046700
