19
Iteration:  4469charge 0 multiplicity 1
 C        -3.824322         0.663431        -1.950888
 C        -2.461480         0.270677        -1.446130
 C        -1.424683        -0.595308        -2.239775
 C        -2.259668        -1.124825        -0.981541
 C        -1.438826        -1.386138         0.257863
 C        -0.393727        -0.257721         0.350815
 O         0.809026        -0.470925         0.484869
 C        -0.739194         1.157953        -0.056065
 O        -2.085540         1.415842        -0.607892
 H        -4.229051        -0.308973        -2.216747
 H        -4.392490         0.962374        -0.997293
 H        -3.799408         1.389240        -2.698671
 H        -1.736313        -1.025679        -3.201503
 H        -0.352315        -0.571535        -2.008012
 H        -3.129625        -1.836430        -1.084546
 H        -2.081387        -1.237299         1.135386
 H        -0.706109        -2.287182         0.143070
 H        -0.424933         1.772225         0.739562
 H        -0.047166         1.321738        -0.890073
