19
Iteration:  3296charge 0 multiplicity 1
 C        -4.009785         0.559863        -1.696368
 C        -2.540128         0.320748        -1.440555
 C        -1.719251        -0.575528        -2.456498
 C        -2.196938        -1.114755        -1.091573
 C        -1.197997        -1.390049        -0.031926
 C        -0.280853        -0.223881         0.404247
 O         0.766458        -0.325416         1.027605
 C        -0.661948         1.081173        -0.281641
 O        -1.944698         1.324984        -0.688917
 H        -4.094228         1.038443        -2.704771
 H        -4.707665        -0.318868        -1.658919
 H        -4.381189         1.396839        -1.056899
 H        -2.258336        -0.944105        -3.374691
 H        -0.625370        -0.439799        -2.547119
 H        -2.974245        -1.840581        -0.994800
 H        -1.724399        -1.482981         0.944060
 H        -0.652967        -2.387739        -0.135223
 H        -0.385294         1.851980         0.487389
 H         0.119526         1.277875        -1.068006
