19
Iteration:  1749
 C        -3.904552         0.521722        -1.670163
 C        -2.457569         0.223024        -1.512091
 C        -1.818519        -0.761434        -2.513243
 C        -2.203434        -1.133404        -1.010118
 C        -1.404276        -1.221159         0.330181
 C        -0.287825        -0.197456         0.493450
 O         0.903359        -0.354600         0.663161
 C        -0.871098         1.157731         0.111366
 O        -1.672708         1.362437        -1.110056
 H        -4.184625         1.283195        -2.423520
 H        -4.442039        -0.435143        -1.695843
 H        -4.234643         0.753632        -0.625088
 H        -2.555657        -0.966407        -3.339597
 H        -0.785944        -0.597509        -2.820202
 H        -3.109606        -1.685916        -0.841748
 H        -2.177334        -0.919964         1.079544
 H        -0.985262        -2.159568         0.550565
 H        -1.607663         1.672099         0.805151
 H        -0.035980         1.892171        -0.143618
