19
Iteration:   565charge 0 multiplicity 1
 C        -3.997856         0.713868        -2.038126
 C        -2.668641         0.055796        -1.474101
 C        -1.586964        -0.684731        -2.087534
 C        -2.172156        -1.243036        -0.788866
 C        -1.123320        -1.323567         0.342939
 C        -0.211314        -0.106459         0.270945
 O         0.954545        -0.283208         0.541377
 C        -0.857394         1.272945        -0.134001
 O        -2.125333         1.232670        -0.779856
 H        -3.896611         1.048423        -3.041835
 H        -4.884043         0.052201        -2.046443
 H        -4.315409         1.423210        -1.241996
 H        -1.732908        -1.209475        -3.111252
 H        -0.543600        -0.336791        -2.050535
 H        -2.869591        -2.059915        -0.900924
 H        -1.691245        -1.535559         1.267261
 H        -0.664067        -2.330617        -0.026538
 H        -0.973242         1.827781         0.800382
 H        -0.103701         1.742504        -0.764813
