19
Iteration:  4679
 C        -4.027857         0.715932        -1.528530
 C        -2.589885         0.328461        -1.453706
 C        -1.701988        -0.482078        -2.482559
 C        -2.163998        -1.180554        -1.147426
 C        -1.203073        -1.509946         0.017091
 C        -0.308716        -0.252779         0.418389
 O         0.597400        -0.305955         1.221308
 C        -0.563717         1.012941        -0.428008
 O        -1.859698         1.315248        -0.846154
 H        -4.736433         0.087543        -2.100733
 H        -4.344223         0.950331        -0.525054
 H        -4.150240         1.711092        -2.061170
 H        -1.958030        -0.712581        -3.476216
 H        -0.634607        -0.317522        -2.404448
 H        -2.981630        -1.814836        -1.430674
 H        -1.774248        -2.001281         0.817786
 H        -0.338932        -2.291249        -0.218753
 H        -0.251398         1.902320         0.043409
 H         0.251860         0.787837        -1.207587
