19
Iteration:  4892
 C        -3.940586         0.756816        -1.918963
 C        -2.562130         0.285002        -1.486316
 C        -1.655586        -0.695574        -2.326534
 C        -2.267097        -1.140864        -0.994359
 C        -1.227434        -1.354738         0.156613
 C        -0.235210        -0.267815         0.345273
 O         0.832814        -0.520568         0.831336
 C        -0.775914         1.176556        -0.102458
 O        -1.975087         1.397483        -0.745397
 H        -4.277065         0.301383        -2.842046
 H        -4.693680         0.558036        -1.050895
 H        -3.928540         1.804929        -2.143180
 H        -2.144092        -1.117774        -3.212313
 H        -0.713967        -0.300770        -2.342997
 H        -3.054419        -1.900819        -0.943755
 H        -1.649522        -1.576519         1.193610
 H        -0.557668        -2.243234         0.121658
 H        -0.651856         1.902827         0.711342
 H         0.095606         1.456693        -0.776807
