19
Iteration:  4265
 C        -3.877389         0.684937        -1.721005
 C        -2.496116         0.300976        -1.548919
 C        -1.764203        -0.797756        -2.374610
 C        -2.284543        -1.066424        -0.982538
 C        -1.178044        -1.434600        -0.057688
 C        -0.254853        -0.193215         0.246470
 O         0.669967        -0.378077         1.000315
 C        -0.680013         1.209192        -0.037649
 O        -1.895111         1.364160        -0.831783
 H        -4.525325         0.101966        -2.348122
 H        -4.506049         0.849089        -0.826853
 H        -3.988520         1.686813        -2.230840
 H        -2.198091        -1.221962        -3.223812
 H        -0.657210        -0.796943        -2.367977
 H        -3.130077        -1.829036        -1.079072
 H        -1.531138        -1.890965         0.920423
 H        -0.643073        -2.310895        -0.422701
 H        -0.850659         1.484095         1.053484
 H         0.235633         1.750296        -0.293098
