19
Iteration:  3597charge 0 multiplicity 1
 C        -3.762477         0.723114        -0.916358
 C        -2.511292         0.214321        -1.383167
 C        -2.094436        -0.672117        -2.548431
 C        -1.948424        -1.188343        -1.120628
 C        -0.668681        -1.407909        -0.467267
 C        -0.380501        -0.207321         0.307652
 O        -0.187010        -0.264867         1.533187
 C        -0.530576         1.119530        -0.378060
 O        -1.627634         1.301958        -1.314298
 H        -4.548545         0.314512        -1.551060
 H        -4.103257         0.205381         0.073179
 H        -4.014623         1.749111        -0.870848
 H        -2.763151        -1.056324        -3.360144
 H        -1.161970        -0.289794        -3.029327
 H        -2.767192        -1.853128        -0.916602
 H        -0.631211        -2.279772         0.192949
 H         0.245091        -1.580892        -1.094852
 H        -0.613460         1.959823         0.330577
 H         0.309478         1.295645        -1.030516
