19
Iteration:  3780charge 0 multiplicity 1
 C        -3.929377         0.755754        -1.287294
 C        -2.461793         0.338569        -1.515966
 C        -2.038162        -0.758486        -2.579978
 C        -2.121976        -1.184502        -1.107838
 C        -0.922530        -1.470137        -0.290644
 C        -0.387852        -0.226063         0.388037
 O         0.421972        -0.269141         1.261630
 C        -0.871696         1.124320         0.012426
 O        -1.473706         1.347393        -1.217724
 H        -4.499453         0.124093        -1.981167
 H        -4.252382         0.474213        -0.235891
 H        -4.028264         1.840370        -1.408307
 H        -2.695904        -1.280696        -3.304735
 H        -1.040670        -0.607939        -2.934512
 H        -3.126080        -1.572386        -0.845550
 H        -1.178412        -2.125697         0.573266
 H        -0.070383        -2.121583        -0.713815
 H        -1.483342         1.457969         0.791113
 H         0.189850         1.644556         0.090992
