19
Iteration:  3515charge 0 multiplicity 1
 C        -3.854886         0.797925        -1.023001
 C        -2.543190         0.170377        -1.356922
 C        -2.224361        -0.865670        -2.417815
 C        -1.976180        -1.209640        -1.094571
 C        -0.538330        -1.317781        -0.589883
 C        -0.395527        -0.150273         0.352685
 O        -0.153181        -0.371988         1.533188
 C        -0.590024         1.230250        -0.278714
 O        -1.465695         1.279119        -1.423332
 H        -4.191506         1.476610        -1.875989
 H        -4.627706         0.120408        -0.831595
 H        -3.639963         1.290354        -0.026583
 H        -3.044503        -1.417677        -2.907075
 H        -1.338244        -0.541614        -2.916166
 H        -2.707090        -1.839931        -0.492356
 H        -0.310814        -2.174408         0.036568
 H         0.164069        -1.110810        -1.339239
 H        -1.009757         1.979899         0.405501
 H         0.243522         1.863906        -0.747173
