19
Iteration:    10
 C        -3.935575         0.656645        -1.162251
 C        -2.510516         0.138169        -1.503650
 C        -2.328065        -1.167123        -2.353536
 C        -2.091231        -1.123602        -0.867879
 C        -0.633326        -1.255932        -0.382793
 C        -0.291120        -0.050136         0.396130
 O         0.294230         0.022940         1.483941
 C        -0.767766         1.260334        -0.273431
 O        -1.479398         1.091102        -1.573828
 H        -4.033112         0.979410        -0.055230
 H        -4.243323         1.494937        -1.890609
 H        -4.698027        -0.088678        -1.309518
 H        -3.158044        -1.649928        -2.853197
 H        -1.481057        -1.055453        -2.971963
 H        -2.962749        -1.399473        -0.159099
 H        -0.282720        -2.165954         0.139513
 H         0.012416        -1.119353        -1.245933
 H        -1.366072         1.917579         0.354046
 H         0.050983         1.794758        -0.639412
