19
Iteration:  3206
 C        -3.832421         0.667165        -1.957761
 C        -2.475785         0.202620        -1.423646
 C        -1.572484        -0.704978        -2.209085
 C        -2.223308        -1.263409        -0.909790
 C        -1.317643        -1.287984         0.253075
 C        -0.338710        -0.180128         0.337998
 O         0.846296        -0.445735         0.409406
 C        -0.804201         1.241684         0.044676
 O        -2.075508         1.382133        -0.664967
 H        -3.579574         1.528163        -2.568651
 H        -4.252820        -0.052368        -2.723107
 H        -4.565695         0.954447        -1.204932
 H        -2.028888        -1.027384        -3.109273
 H        -0.515566        -0.431388        -2.310695
 H        -2.923488        -2.038565        -1.140006
 H        -1.929461        -1.465456         1.162919
 H        -0.694757        -2.143491         0.125521
 H        -0.927694         1.872127         0.908063
 H         0.038237         1.750365        -0.512230
