19
Iteration:  1357charge 0 multiplicity 1
 C        -3.883522         0.674755        -1.299727
 C        -2.456352         0.189112        -1.563645
 C        -2.257167        -0.939568        -2.476543
 C        -2.190080        -1.109043        -0.977693
 C        -0.885913        -1.275767        -0.250760
 C        -0.416367        -0.072597         0.500159
 O         0.468230        -0.249801         1.351801
 C        -0.754892         1.255225        -0.139873
 O        -1.431425         1.196080        -1.392694
 H        -4.348248         1.158034        -2.153777
 H        -4.520326        -0.197350        -1.222570
 H        -4.041407         1.281362        -0.392373
 H        -3.097011        -1.236723        -3.033855
 H        -1.347006        -1.086293        -3.063169
 H        -3.090636        -1.577960        -0.600157
 H        -0.726933        -2.214684         0.430999
 H        -0.141332        -1.437213        -1.130797
 H        -1.201004         1.882832         0.659558
 H         0.245032         1.655788        -0.179996
