19
Iteration:  2948
 C        -3.736507         0.749357        -0.984792
 C        -2.426663         0.144878        -1.489640
 C        -2.352489        -0.944971        -2.543101
 C        -2.098345        -1.243308        -1.020757
 C        -0.643322        -1.278540        -0.530143
 C        -0.405124        -0.091812         0.454705
 O         0.018758        -0.076325         1.594234
 C        -0.728211         1.247618        -0.246259
 O        -1.385208         1.057068        -1.515440
 H        -3.728339         1.671214        -1.562136
 H        -4.659601         0.235106        -1.334930
 H        -3.779819         1.067084         0.051692
 H        -3.360202        -1.329170        -2.855609
 H        -1.389109        -0.956209        -2.996733
 H        -2.790459        -1.881133        -0.527338
 H        -0.314788        -2.217509        -0.112427
 H        -0.028936        -1.068032        -1.454020
 H        -1.304913         1.865932         0.426115
 H         0.082800         1.948534        -0.410458
