19
Iteration:   539
 C        -3.854361         0.459690        -2.038941
 C        -2.551785         0.157106        -1.370144
 C        -1.536801        -0.612779        -2.182830
 C        -2.125345        -1.217623        -0.922149
 C        -1.336357        -1.217126         0.399014
 C        -0.270948        -0.150725         0.246088
 O         0.914770        -0.301689         0.419775
 C        -0.801966         1.216216        -0.239533
 O        -2.176151         1.298566        -0.458531
 H        -3.763196         0.533083        -3.179769
 H        -4.602507        -0.372082        -1.858149
 H        -4.315597         1.344349        -1.603748
 H        -1.871346        -0.979525        -3.091748
 H        -0.499779        -0.320748        -2.264069
 H        -2.899419        -1.984854        -1.073714
 H        -2.174625        -0.885774         1.148106
 H        -1.053382        -2.204688         0.583139
 H        -0.512964         1.917621         0.559833
 H        -0.212842         1.418233        -1.126605
