19
Iteration:  2251charge 0 multiplicity 1
 C        -3.635508         0.814890        -0.881337
 C        -2.427886         0.078570        -1.476189
 C        -2.385754        -1.011993        -2.568393
 C        -1.966461        -1.298373        -1.092094
 C        -0.561439        -1.333262        -0.411638
 C        -0.352814        -0.064453         0.365200
 O        -0.192308        -0.130543         1.584189
 C        -0.678941         1.340303        -0.359305
 O        -1.527461         1.154190        -1.522053
 H        -4.288776         1.312510        -1.622157
 H        -4.318829         0.296239        -0.254609
 H        -3.122925         1.543853        -0.245195
 H        -3.321368        -1.478348        -2.787182
 H        -1.619892        -0.937486        -3.329243
 H        -2.589402        -1.819561        -0.295869
 H        -0.259285        -2.232311         0.133834
 H         0.301170        -1.213208        -1.192567
 H        -1.269037         1.948330         0.367239
 H         0.273066         1.920416        -0.525788
