19
Iteration:  3198
 C        -3.756346         0.622933        -1.973255
 C        -2.515238         0.176971        -1.438168
 C        -1.614500        -0.722275        -2.193347
 C        -2.297087        -1.216206        -0.914527
 C        -1.297168        -1.315490         0.231874
 C        -0.325967        -0.158333         0.280780
 O         0.860535        -0.481320         0.387784
 C        -0.891160         1.306816         0.109233
 O        -2.009717         1.414979        -0.678282
 H        -3.642801         1.637251        -2.387661
 H        -4.020606        -0.144073        -2.804372
 H        -4.657641         0.807746        -1.354665
 H        -2.047421        -1.044370        -3.168725
 H        -0.548237        -0.504157        -2.233766
 H        -2.913783        -2.035064        -0.933368
 H        -1.779696        -1.362014         1.262656
 H        -0.485720        -2.131422         0.316841
 H        -0.883806         1.661965         1.187962
 H        -0.086545         1.872358        -0.310949
