19
Iteration:  4343charge 0 multiplicity 1
 C        -3.936162         0.576812        -1.930948
 C        -2.534407         0.281689        -1.450754
 C        -1.638652        -0.544306        -2.258357
 C        -2.245309        -1.143947        -1.012253
 C        -1.373512        -1.327039         0.172474
 C        -0.207337        -0.298132         0.274091
 O         0.885425        -0.537099         0.785853
 C        -0.720693         1.175914        -0.059004
 O        -1.986205         1.437530        -0.778877
 H        -4.464875        -0.293440        -2.319186
 H        -4.466028         0.969572        -1.096062
 H        -4.154735         1.345457        -2.792827
 H        -1.831987        -0.936497        -3.259882
 H        -0.625514        -0.267526        -2.216251
 H        -3.169829        -1.781546        -1.041693
 H        -1.904861        -0.979504         1.128666
 H        -1.049281        -2.339427         0.221107
 H        -0.816479         1.591826         1.009010
 H         0.155782         1.660046        -0.403590
