19
Iteration:  4586charge 0 multiplicity 1
 C        -4.003488         0.748172        -1.830838
 C        -2.613693         0.300130        -1.487738
 C        -1.681569        -0.556945        -2.292405
 C        -2.214226        -1.102927        -0.964859
 C        -1.100299        -1.514719         0.085011
 C        -0.297977        -0.310048         0.319735
 O         0.670094        -0.382795         1.043884
 C        -0.567980         1.038264        -0.274635
 O        -1.972991         1.366425        -0.784517
 H        -4.713937         0.223444        -2.504603
 H        -4.580546         0.926693        -0.843970
 H        -3.980292         1.773944        -2.223902
 H        -2.071315        -0.970136        -3.329100
 H        -0.650534        -0.119099        -2.333107
 H        -3.009765        -1.851071        -1.213843
 H        -1.595461        -1.994467         0.900458
 H        -0.430175        -2.017648        -0.519767
 H        -0.269857         1.791828         0.575835
 H         0.075115         1.303610        -1.128423
