19
Iteration:  2414charge 0 multiplicity 1
 C        -3.849773         0.732186        -1.479942
 C        -2.448716         0.135981        -1.545733
 C        -1.988191        -0.850378        -2.608630
 C        -2.144576        -1.250986        -1.013679
 C        -1.160432        -1.348277         0.105604
 C        -0.285640        -0.079826         0.389883
 O         0.784788        -0.173271         0.907008
 C        -1.066900         1.213796         0.142487
 O        -1.591429         1.231094        -1.186351
 H        -4.164505         1.253471        -2.372104
 H        -4.596109        -0.007618        -1.333590
 H        -3.797666         1.416578        -0.641098
 H        -2.654811        -1.177929        -3.352002
 H        -0.964769        -0.814288        -2.943596
 H        -3.027396        -1.858930        -0.806579
 H        -1.644109        -1.419081         1.076688
 H        -0.595327        -2.292556         0.034942
 H        -1.867091         1.394394         0.892787
 H        -0.251314         1.984388         0.183192
