19
Iteration:  4474charge 0 multiplicity 1
 C        -3.880483         0.650423        -1.922399
 C        -2.416141         0.270414        -1.429141
 C        -1.416189        -0.567823        -2.230945
 C        -2.265955        -1.133088        -0.955135
 C        -1.420426        -1.362316         0.254670
 C        -0.404093        -0.269062         0.309839
 O         0.787770        -0.459396         0.498928
 C        -0.766446         1.142597        -0.079708
 O        -2.025674         1.399409        -0.632656
 H        -4.379231        -0.288097        -2.240418
 H        -4.404857         1.031311        -1.087196
 H        -3.753127         1.438920        -2.764342
 H        -1.706092        -1.024148        -3.160557
 H        -0.337372        -0.438089        -2.054561
 H        -3.059058        -1.837039        -1.119671
 H        -2.104106        -1.507027         1.145585
 H        -0.877208        -2.260046         0.201136
 H        -0.557357         1.744892         0.881394
 H        -0.001599         1.359005        -0.864015
