19
Iteration:  4633charge 0 multiplicity 1
 C        -3.899600         0.629130        -1.658459
 C        -2.478530         0.215965        -1.448052
 C        -1.854447        -0.465974        -2.608169
 C        -2.146263        -1.227702        -1.164879
 C        -1.236091        -1.282458         0.019284
 C        -0.303019        -0.240870         0.343210
 O         0.558909        -0.377819         1.216893
 C        -0.446123         1.159559        -0.447873
 O        -1.876418         1.232841        -0.546717
 H        -4.527792        -0.163473        -2.042871
 H        -4.442431         1.004934        -0.700070
 H        -4.048632         1.402411        -2.362203
 H        -2.601204        -0.693850        -3.308571
 H        -0.857520        -0.495233        -3.001135
 H        -3.124046        -1.768327        -1.252376
 H        -1.981141        -1.146904         0.818853
 H        -0.889809        -2.330346         0.025534
 H        -0.050526         1.848847         0.265520
 H         0.156022         1.237388        -1.397095
