19
Iteration:  2657charge 0 multiplicity 1
 C        -3.941539         0.677211        -1.733192
 C        -2.468519         0.259324        -1.496222
 C        -2.028049        -0.856578        -2.398046
 C        -2.247867        -1.120720        -0.940005
 C        -1.077566        -1.412626        -0.055974
 C        -0.254788        -0.185187         0.361216
 O         0.854732        -0.125345         0.911300
 C        -1.044425         1.158880         0.210356
 O        -1.554595         1.269493        -1.125841
 H        -4.004344         1.508885        -2.456576
 H        -4.588381        -0.212406        -1.919881
 H        -4.342375         1.099101        -0.801586
 H        -2.802684        -1.239045        -3.126083
 H        -0.967900        -0.962115        -2.859668
 H        -3.181977        -1.725629        -0.687768
 H        -1.408097        -1.699916         0.941994
 H        -0.422563        -2.343417        -0.273944
 H        -1.776713         1.067789         0.996452
 H        -0.350624         1.998528         0.395852
