19
Iteration:  3960charge 0 multiplicity 1
 C        -3.804981         1.046211        -1.481688
 C        -2.417279         0.283260        -1.559197
 C        -1.979368        -0.857081        -2.507280
 C        -2.267901        -1.129731        -1.077618
 C        -0.989688        -1.541581        -0.112872
 C        -0.396206        -0.260270         0.509231
 O         0.753434        -0.091668         0.844074
 C        -1.299171         1.021196         0.300141
 O        -1.401102         1.135449        -1.152614
 H        -4.653551         0.484024        -1.935499
 H        -4.045445         1.227037        -0.450047
 H        -3.707079         2.043876        -1.976985
 H        -2.617537        -1.330720        -3.235706
 H        -0.908509        -0.726461        -2.774742
 H        -3.201445        -1.752352        -0.921313
 H        -1.317154        -2.169383         0.731774
 H        -0.234623        -2.018727        -0.681789
 H        -2.189418         1.010288         0.878792
 H        -0.705023         1.820432         0.605660
