19
Iteration:  3327
 C        -3.995618         0.739453        -1.575476
 C        -2.591486         0.286417        -1.445945
 C        -1.793911        -0.590415        -2.376365
 C        -2.131784        -1.267769        -1.009491
 C        -1.046488        -1.575892        -0.074588
 C        -0.357041        -0.272597         0.356864
 O         0.637222        -0.224152         1.106440
 C        -0.674893         1.114481        -0.265556
 O        -1.844318         1.377435        -0.957816
 H        -3.904384         1.567209        -2.258730
 H        -4.835480         0.124276        -2.040588
 H        -4.347760         0.918950        -0.558628
 H        -2.425971        -1.027569        -3.208165
 H        -0.762245        -0.325521        -2.611780
 H        -2.886605        -1.972809        -1.151934
 H        -1.364145        -2.015868         0.837293
 H        -0.327418        -2.224422        -0.522090
 H        -0.866041         1.750337         0.640652
 H         0.307076         1.584398        -0.646036
