19
Iteration:  2854charge 0 multiplicity 1
 C        -3.679642         0.641808        -0.695403
 C        -2.450068         0.199773        -1.343317
 C        -2.402808        -0.951659        -2.386657
 C        -1.922074        -1.205748        -0.904553
 C        -0.346452        -1.242381        -0.652108
 C        -0.365043        -0.067556         0.337124
 O        -0.769150        -0.158485         1.463553
 C        -0.323375         1.229413        -0.528106
 O        -1.392273         1.159998        -1.539898
 H        -4.167381         1.388697        -1.381340
 H        -4.414682        -0.146162        -0.694537
 H        -3.523885         1.123485         0.311525
 H        -3.407914        -1.395631        -2.516635
 H        -1.617056        -0.940086        -3.091179
 H        -2.624056        -1.649417        -0.248940
 H        -0.010884        -2.072597        -0.125797
 H         0.100087        -1.136843        -1.657389
 H        -0.291858         2.220257         0.008186
 H         0.564372         1.371010        -1.145076
