19
Iteration:  3121charge 0 multiplicity 1
 C        -3.709688         0.801323        -1.843184
 C        -2.394347         0.172911        -1.390367
 C        -1.772598        -0.865469        -2.249270
 C        -2.249312        -1.246782        -0.873936
 C        -1.249243        -1.375496         0.252759
 C        -0.421755        -0.126387         0.368355
 O         0.788135        -0.234115         0.220544
 C        -1.214274         1.233421         0.392950
 O        -1.588535         1.266386        -1.010572
 H        -3.645969         1.892647        -1.902461
 H        -4.142241         0.449666        -2.873105
 H        -4.532183         0.478632        -1.177918
 H        -2.070190        -1.468346        -3.061452
 H        -0.698552        -0.577243        -2.231666
 H        -3.014813        -1.902812        -0.817872
 H        -1.682205        -1.500339         1.283206
 H        -0.391804        -2.094670         0.096296
 H        -2.167250         1.093816         0.970763
 H        -0.518694         2.023822         0.607327
