19
Iteration:  3961charge 0 multiplicity 1
 C        -3.800350         1.038249        -1.480201
 C        -2.421581         0.286438        -1.565016
 C        -1.974501        -0.857753        -2.507925
 C        -2.263899        -1.131057        -1.082379
 C        -0.995761        -1.552732        -0.110250
 C        -0.399302        -0.257557         0.512553
 O         0.759022        -0.093863         0.846292
 C        -1.301992         1.021811         0.294097
 O        -1.404224         1.142106        -1.152044
 H        -4.674431         0.471922        -1.909901
 H        -4.038917         1.234222        -0.443642
 H        -3.721849         2.088947        -1.975284
 H        -2.609938        -1.325533        -3.210372
 H        -0.888901        -0.699600        -2.766139
 H        -3.247177        -1.730132        -0.885014
 H        -1.313060        -2.154485         0.755018
 H        -0.231930        -2.017235        -0.707541
 H        -2.184032         0.984607         0.873659
 H        -0.675419         1.838525         0.582342
