19
Iteration:    94charge 0 multiplicity 1
 C        -3.794662         0.686426        -0.800712
 C        -2.502405         0.017688        -1.316794
 C        -2.333627        -1.071720        -2.368216
 C        -1.916874        -1.278570        -0.895929
 C        -0.394737        -1.366684        -0.406575
 C        -0.384833        -0.009683         0.291340
 O        -0.321010         0.223075         1.485575
 C        -0.503910         1.226559        -0.692933
 O        -1.602734         1.126817        -1.568442
 H        -4.713431         0.055144        -0.949904
 H        -3.653997         1.060113         0.256351
 H        -3.863936         1.589422        -1.427287
 H        -3.016650        -1.704998        -2.983521
 H        -1.464823        -0.790725        -2.943694
 H        -2.611165        -1.916812        -0.181994
 H        -0.191612        -2.150638         0.390495
 H         0.373026        -1.468138        -1.207993
 H        -0.479045         2.080088         0.065811
 H         0.525999         1.241357        -1.255742
