19
Iteration:   440charge 0 multiplicity 1
 C        -3.906771         0.481074        -1.927314
 C        -2.482137         0.178724        -1.425796
 C        -1.649467        -0.934709        -2.212033
 C        -2.279647        -1.228486        -0.858587
 C        -1.284325        -1.301934         0.238605
 C        -0.272997        -0.083108         0.235280
 O         0.928322        -0.178004         0.446772
 C        -0.862093         1.338975         0.070371
 O        -1.978999         1.354635        -0.756594
 H        -3.958107         1.472746        -2.414062
 H        -4.146043        -0.398411        -2.544859
 H        -4.566468         0.640012        -1.060726
 H        -2.033158        -1.218656        -3.218688
 H        -0.579991        -0.869657        -2.213992
 H        -3.131841        -1.985473        -0.956651
 H        -1.828847        -1.286303         1.258917
 H        -0.647564        -2.139784         0.148813
 H        -1.152864         1.682700         1.069448
 H        -0.108659         1.910340        -0.401217
