19
Iteration:  4795
 C        -4.039690         0.714192        -1.745116
 C        -2.557998         0.284890        -1.417109
 C        -1.789413        -0.513556        -2.447234
 C        -2.208125        -1.125985        -1.098168
 C        -1.161330        -1.460045        -0.011800
 C        -0.250035        -0.291914         0.361008
 O         0.625671        -0.311854         1.175094
 C        -0.545873         1.011540        -0.371317
 O        -1.835374         1.329740        -0.715756
 H        -4.583707        -0.182608        -2.010365
 H        -4.544100         1.153061        -0.804636
 H        -4.177198         1.258133        -2.589829
 H        -2.323113        -0.711995        -3.338570
 H        -0.738201        -0.188069        -2.526486
 H        -3.035759        -1.869426        -1.266995
 H        -1.695838        -1.723095         0.940614
 H        -0.624870        -2.423815        -0.149902
 H        -0.366893         1.738173         0.425301
 H         0.256255         1.268090        -1.089508
