19
Iteration:  2951
 C        -3.759211         0.746881        -1.034710
 C        -2.431568         0.126245        -1.473622
 C        -2.339188        -0.943234        -2.542952
 C        -2.087540        -1.217158        -0.985163
 C        -0.672279        -1.284148        -0.523265
 C        -0.383440        -0.068384         0.452999
 O         0.039231        -0.093831         1.567558
 C        -0.704922         1.224324        -0.234040
 O        -1.395755         1.078123        -1.489111
 H        -3.825470         1.604486        -1.718597
 H        -4.668937         0.232198        -1.296149
 H        -3.837395         1.022667         0.036164
 H        -3.289076        -1.377653        -2.901192
 H        -1.369787        -0.926770        -3.067736
 H        -2.871790        -1.784076        -0.510875
 H        -0.369071        -2.197042        -0.120035
 H        -0.068642        -1.039286        -1.407515
 H        -1.370885         1.843190         0.421400
 H         0.090995         1.886202        -0.434999
