19
Iteration:  3059charge 0 multiplicity 1
 C        -3.836607         0.807299        -1.615802
 C        -2.444578         0.185505        -1.467843
 C        -1.943764        -0.844461        -2.437610
 C        -2.191255        -1.192720        -0.890875
 C        -1.124216        -1.363354         0.116709
 C        -0.374674        -0.148318         0.406175
 O         0.829029        -0.150613         0.726478
 C        -1.240810         1.151947         0.180786
 O        -1.449151         1.167148        -1.206454
 H        -3.885584         1.467588        -2.482996
 H        -4.587506         0.054215        -1.564291
 H        -3.878093         1.591403        -0.849964
 H        -2.643726        -1.242133        -3.158773
 H        -0.886026        -0.865205        -2.858048
 H        -3.119006        -1.787708        -0.798673
 H        -1.534319        -1.655220         1.052287
 H        -0.344280        -2.152271        -0.078477
 H        -2.243190         1.091881         0.658629
 H        -0.879692         2.114082         0.410381
