19
Iteration:  2846charge 0 multiplicity 1
 C        -3.783898         0.649662        -0.729022
 C        -2.421648         0.134077        -1.322134
 C        -2.419776        -0.888324        -2.349055
 C        -1.965132        -1.183069        -0.944979
 C        -0.288158        -1.323261        -0.587295
 C        -0.329519        -0.066440         0.287057
 O        -0.747411        -0.165975         1.465576
 C        -0.308721         1.261138        -0.523919
 O        -1.404435         1.203950        -1.541621
 H        -4.218099         1.325598        -1.500902
 H        -4.392336        -0.234699        -0.538266
 H        -3.712494         1.331922         0.131072
 H        -3.346452        -1.281676        -2.605330
 H        -1.727447        -1.002168        -3.126875
 H        -2.611185        -1.676537        -0.208049
 H         0.132812        -2.303883        -0.117213
 H         0.370798        -1.092697        -1.461531
 H        -0.382214         2.186637         0.011241
 H         0.667734         1.168176        -1.173872
