19
Iteration:  3528
 C        -3.850224         0.741178        -1.040386
 C        -2.443043         0.210609        -1.358503
 C        -2.298157        -0.800308        -2.514676
 C        -1.971610        -1.231942        -1.025247
 C        -0.513795        -1.318546        -0.607303
 C        -0.347007        -0.179570         0.399646
 O        -0.188950        -0.305396         1.588177
 C        -0.533159         1.220898        -0.340563
 O        -1.560043         1.288391        -1.356100
 H        -4.258126         1.170130        -1.995921
 H        -4.472352        -0.093249        -0.691329
 H        -3.904412         1.667088        -0.377110
 H        -3.154516        -1.216960        -2.987950
 H        -1.529070        -0.633459        -3.200403
 H        -2.675574        -1.934351        -0.588480
 H        -0.311516        -2.310895        -0.184356
 H         0.097025        -1.248202        -1.497572
 H        -0.673698         1.915060         0.537492
 H         0.513508         1.280679        -0.709470
