19
Iteration:  3142
 C        -3.888687         0.744527        -2.033188
 C        -2.470285         0.254020        -1.437836
 C        -1.674610        -0.792734        -2.166835
 C        -2.248829        -1.134690        -0.773550
 C        -1.269600        -1.442787         0.329754
 C        -0.296661        -0.234742         0.351723
 O         0.903791        -0.248869         0.216229
 C        -1.123287         1.113782         0.379404
 O        -1.719847         1.354108        -0.966501
 H        -3.706723         1.803729        -2.190473
 H        -3.898076         0.368279        -3.140483
 H        -4.795524         0.361483        -1.546240
 H        -2.230249        -1.171578        -2.999076
 H        -0.592825        -0.633403        -2.305448
 H        -3.131537        -1.667752        -0.669507
 H        -1.792185        -1.421727         1.338676
 H        -0.580197        -2.295631         0.209112
 H        -1.906561         0.956160         1.145919
 H        -0.449303         1.963878         0.512951
