19
Iteration:   338charge 0 multiplicity 1
 C        -3.874623         0.609951        -1.304653
 C        -2.522609         0.130103        -1.606556
 C        -2.012834        -1.096274        -2.480811
 C        -2.140462        -1.291596        -0.993829
 C        -1.072987        -1.204607         0.086997
 C        -0.349477         0.056286         0.428008
 O         0.808052        -0.075689         0.870862
 C        -1.189494         1.311273         0.094401
 O        -1.425817         1.191433        -1.366162
 H        -3.721949         1.476560        -0.679649
 H        -4.359619         0.967635        -2.220074
 H        -4.412883        -0.293592        -0.880867
 H        -2.834955        -1.403213        -3.135255
 H        -1.007055        -1.049252        -2.973610
 H        -2.977941        -1.817339        -0.693748
 H        -1.542688        -1.432562         1.048061
 H        -0.327987        -2.055746        -0.122301
 H        -2.088179         1.318362         0.699402
 H        -0.687148         2.293366         0.341427
