19
Iteration:  2491
 C        -3.745133         0.677554        -1.966534
 C        -2.413179         0.255527        -1.416866
 C        -1.957954        -0.961278        -2.387225
 C        -2.278033        -1.199158        -0.860149
 C        -1.147915        -1.347672         0.239211
 C        -0.218742        -0.089433         0.303901
 O         0.923346        -0.228274         0.413360
 C        -1.183263         1.173678         0.409055
 O        -1.707708         1.342496        -0.921489
 H        -3.439407         1.574122        -2.512711
 H        -4.326064        -0.057934        -2.512403
 H        -4.434737         1.133629        -1.240309
 H        -2.722982        -1.340969        -3.060588
 H        -0.983309        -1.085932        -2.856556
 H        -3.154160        -1.773529        -0.654456
 H        -1.573608        -1.205469         1.207447
 H        -0.668486        -2.331474         0.389795
 H        -2.050324         1.133304         1.174097
 H        -0.563771         2.053166         0.486925
