19
Iteration:  4845
 C        -3.921632         0.604983        -1.689820
 C        -2.471176         0.283549        -1.477688
 C        -1.698008        -0.473384        -2.473029
 C        -2.106283        -1.166781        -1.107515
 C        -1.372375        -1.292810         0.159114
 C        -0.331038        -0.285739         0.304271
 O         0.680616        -0.417887         1.006532
 C        -0.520115         1.078149        -0.368330
 O        -1.973196         1.296857        -0.631102
 H        -4.493118         0.135333        -2.515884
 H        -4.418980         0.512668        -0.750692
 H        -4.007819         1.791009        -1.985311
 H        -2.262035        -0.890628        -3.290013
 H        -0.554829        -0.347227        -2.556685
 H        -2.947376        -1.876498        -1.203867
 H        -2.184762        -1.101799         0.860168
 H        -1.101309        -2.299392         0.574927
 H        -0.164646         1.983554         0.192843
 H         0.046009         1.081178        -1.318401
