19
Iteration:  4015
 C        -4.000440         0.686776        -1.595223
 C        -2.489601         0.281628        -1.530673
 C        -2.002105        -0.638681        -2.555755
 C        -2.167707        -1.125856        -1.122198
 C        -1.133418        -1.386416        -0.006766
 C        -0.300434        -0.204811         0.448542
 O         0.746575        -0.399303         0.985711
 C        -0.881065         1.235142         0.239895
 O        -1.520107         1.228164        -1.116336
 H        -4.708787        -0.150076        -1.646530
 H        -4.334986         1.291894        -0.803984
 H        -4.232262         1.374020        -2.458151
 H        -2.640526        -1.013369        -3.304795
 H        -0.917529        -0.377465        -2.773366
 H        -3.008642        -1.925704        -1.082373
 H        -1.772227        -1.758067         0.836245
 H        -0.396999        -2.115635        -0.245962
 H        -1.573017         1.271347         1.110138
 H        -0.139732         1.997227         0.083378
