19
Iteration:   752
 C        -3.984343         0.746144        -1.486347
 C        -2.516155         0.102376        -1.424430
 C        -2.369119        -1.037694        -2.358421
 C        -2.004945        -1.235636        -0.959273
 C        -0.618999        -1.235419        -0.427141
 C        -0.215377        -0.051426         0.391968
 O         0.401615        -0.123439         1.449770
 C        -0.784458         1.243523        -0.099156
 O        -1.622844         1.183296        -1.336518
 H        -4.172311         1.023989        -2.516309
 H        -4.762642         0.014569        -1.218231
 H        -4.108778         1.620545        -0.776694
 H        -3.295102        -1.423740        -2.751899
 H        -1.489193        -1.149311        -2.955108
 H        -2.711804        -1.752149        -0.297113
 H        -0.416469        -2.129013         0.219684
 H         0.102290        -1.160223        -1.322495
 H        -1.486636         1.611849         0.670584
 H        -0.013667         2.035429        -0.341692
