19
Iteration:  2551charge 0 multiplicity 1
 C        -3.851941         0.655335        -1.945842
 C        -2.465600         0.244976        -1.435982
 C        -1.708900        -0.814095        -2.171912
 C        -2.275346        -1.183842        -0.786128
 C        -1.272268        -1.387427         0.283017
 C        -0.288371        -0.150812         0.286951
 O         0.904929        -0.301304         0.352905
 C        -1.098109         1.132853         0.259623
 O        -1.733808         1.418282        -1.010271
 H        -3.671863         1.663012        -2.397578
 H        -4.251709         0.136909        -2.804392
 H        -4.514024         0.744649        -1.078725
 H        -2.183190        -1.191875        -3.052615
 H        -0.597638        -0.746409        -2.124722
 H        -3.154279        -1.868608        -0.722992
 H        -1.630638        -1.382595         1.351049
 H        -0.619997        -2.254851         0.058587
 H        -1.905427         1.046897         1.023687
 H        -0.486990         2.053770         0.531937
