19
Iteration:  2132charge 0 multiplicity 1
 C        -3.847269         0.849086        -0.928365
 C        -2.480013         0.167194        -1.435313
 C        -2.433292        -0.963876        -2.473412
 C        -2.026983        -1.222296        -1.019936
 C        -0.496406        -1.267629        -0.556633
 C        -0.327499        -0.047846         0.374896
 O        -0.136451        -0.096636         1.582245
 C        -0.705385         1.293311        -0.276001
 O        -1.258319         0.924422        -1.542048
 H        -4.024749         1.790364        -1.564278
 H        -4.630933         0.142806        -1.276015
 H        -3.919740         1.010630         0.201704
 H        -3.338634        -1.453617        -2.757222
 H        -1.664858        -0.962635        -3.267640
 H        -2.771546        -1.824525        -0.430995
 H        -0.182887        -2.197707        -0.111028
 H         0.037951        -1.209877        -1.489294
 H        -1.367607         1.896717         0.465918
 H         0.159580         1.893805        -0.473200
