19
Iteration:  4981charge 0 multiplicity 1
 C        -3.915410         0.732255        -2.032316
 C        -2.554702         0.210339        -1.394365
 C        -1.471073        -0.459433        -2.211869
 C        -2.130723        -1.220953        -1.048148
 C        -1.457736        -1.229336         0.354614
 C        -0.322843        -0.232573         0.353929
 O         0.872750        -0.573800         0.494789
 C        -0.746139         1.168861        -0.091488
 O        -2.053902         1.249048        -0.597889
 H        -4.743180        -0.028399        -2.007101
 H        -4.167526         1.601100        -1.304435
 H        -3.759160         0.978294        -3.016819
 H        -1.765152        -0.868137        -3.123194
 H        -0.436360        -0.266842        -2.210457
 H        -2.776101        -2.097598        -1.227955
 H        -2.268254        -0.956510         1.061241
 H        -1.009849        -2.199490         0.506349
 H        -0.810117         1.815235         0.786919
 H        -0.000859         1.608534        -0.812901
