19
Iteration:  1710charge 0 multiplicity 1
 C        -4.009897         0.727756        -1.440774
 C        -2.553341         0.182623        -1.452026
 C        -1.779321        -0.755343        -2.478804
 C        -2.140305        -1.181913        -1.064533
 C        -1.197942        -1.241804         0.119891
 C        -0.341291        -0.116069         0.435977
 O         0.749291        -0.353345         0.909061
 C        -0.913767         1.242290        -0.015985
 O        -1.597500         1.155545        -1.247592
 H        -4.327430         1.218334        -2.365048
 H        -4.732138        -0.076941        -1.304940
 H        -4.001753         1.521781        -0.695442
 H        -2.343067        -1.284399        -3.263717
 H        -0.821212        -0.293170        -2.730917
 H        -2.804342        -2.048042        -1.117708
 H        -1.879767        -1.379833         0.972472
 H        -0.594271        -2.217319         0.106988
 H        -1.428801         1.602052         0.877168
 H        -0.070120         1.858621        -0.156230
