19
Iteration:  4757
 C        -3.932142         0.870761        -1.719365
 C        -2.551434         0.289641        -1.428474
 C        -1.839446        -0.697031        -2.464013
 C        -2.208907        -1.227802        -1.021203
 C        -1.029486        -1.451381        -0.113694
 C        -0.345236        -0.257955         0.420437
 O         0.610682        -0.354629         1.145087
 C        -0.640184         1.105912        -0.233651
 O        -1.873673         1.325117        -0.802746
 H        -4.616260         0.034293        -2.010372
 H        -4.424239         1.293659        -0.901622
 H        -3.857851         1.850611        -2.379234
 H        -2.469796        -0.998740        -3.381522
 H        -0.814488        -0.515710        -2.755081
 H        -3.057313        -1.844230        -0.796751
 H        -1.441218        -2.059746         0.737859
 H        -0.055067        -1.853421        -0.599011
 H        -0.493414         1.874863         0.557441
 H         0.175018         1.134047        -1.047989
