19
Iteration:  2703
 C        -3.877534         0.967774        -1.568037
 C        -2.559983         0.155569        -1.556707
 C        -2.168677        -1.013591        -2.392334
 C        -2.227368        -1.215830        -0.869551
 C        -0.780635        -1.322973        -0.255923
 C        -0.311246        -0.112064         0.535398
 O         0.740768        -0.123640         1.127186
 C        -1.165705         1.138727         0.099055
 O        -1.487307         1.124631        -1.287998
 H        -3.606367         2.018218        -1.857529
 H        -4.596641         0.481895        -2.203093
 H        -4.387165         1.021883        -0.589080
 H        -3.014100        -1.450396        -2.912364
 H        -1.304674        -1.007097        -3.036421
 H        -2.934697        -1.921219        -0.472964
 H        -0.605546        -2.338624         0.122896
 H         0.044081        -1.301731        -1.071433
 H        -2.038850         1.422759         0.704640
 H        -0.322427         1.917275         0.149743
