19
Iteration:  3164
 C        -3.841614         0.612159        -2.115926
 C        -2.548841         0.310818        -1.503606
 C        -1.678021        -0.810900        -2.165763
 C        -2.383618        -1.037027        -0.833478
 C        -1.302777        -1.340478         0.323097
 C        -0.206448        -0.243116         0.295143
 O         0.987024        -0.277915         0.283203
 C        -0.998444         1.049132         0.309111
 O        -1.838566         1.417056        -0.763976
 H        -3.883294         1.669202        -2.328038
 H        -3.925603         0.077959        -3.158874
 H        -4.520589         0.102692        -1.420937
 H        -2.089695        -1.259440        -3.040843
 H        -0.568793        -0.746432        -2.112161
 H        -3.148144        -1.721095        -0.817765
 H        -1.805307        -1.198824         1.337730
 H        -0.963330        -2.400068         0.107120
 H        -1.512562         0.970999         1.304248
 H        -0.247926         1.834542         0.269211
