19
Iteration:  1803
 C        -3.753362         0.789952        -2.074688
 C        -2.584392         0.197928        -1.376729
 C        -1.849094        -0.847202        -2.149741
 C        -2.416364        -1.154011        -0.710699
 C        -1.215860        -1.465689         0.223607
 C        -0.237355        -0.185561         0.258878
 O         0.954999        -0.229258         0.510544
 C        -0.955878         1.199076         0.111219
 O        -1.821519         1.298734        -0.957774
 H        -3.445643         1.806422        -2.324530
 H        -3.773291         0.321895        -3.026692
 H        -4.509701         0.855390        -1.373346
 H        -2.369773        -1.393208        -2.969553
 H        -0.773752        -0.758281        -2.036148
 H        -3.183748        -1.893054        -0.611340
 H        -1.512389        -1.739718         1.301281
 H        -0.560172        -2.244973        -0.081637
 H        -1.473635         1.492685         1.089267
 H        -0.199308         2.060821        -0.041535
