19
Iteration:  4761charge 0 multiplicity 1
 C        -3.929242         0.873681        -1.738723
 C        -2.508561         0.252503        -1.412316
 C        -1.867966        -0.678186        -2.460161
 C        -2.204011        -1.206290        -1.032412
 C        -1.013411        -1.516797        -0.102540
 C        -0.373169        -0.267564         0.436938
 O         0.628626        -0.334522         1.139263
 C        -0.675028         1.091697        -0.271236
 O        -1.871951         1.375415        -0.793820
 H        -4.625569         0.102079        -1.990301
 H        -4.400929         1.331882        -0.803021
 H        -3.821411         1.698558        -2.368610
 H        -2.466925        -0.951492        -3.295499
 H        -0.786046        -0.392302        -2.756269
 H        -3.034740        -1.961434        -0.905333
 H        -1.526740        -2.044010         0.753793
 H        -0.078985        -1.971576        -0.530759
 H        -0.513690         1.913433         0.487172
 H         0.180787         1.063166        -0.972584
