19
Iteration:  3582charge 0 multiplicity 1
 C        -3.933610         0.564595        -0.946557
 C        -2.459410         0.236431        -1.408565
 C        -2.153427        -0.636848        -2.561406
 C        -2.043214        -1.198731        -1.110736
 C        -0.596321        -1.378242        -0.492604
 C        -0.397444        -0.142166         0.366554
 O        -0.215360        -0.326579         1.583265
 C        -0.416685         1.205506        -0.480279
 O        -1.545873         1.307090        -1.291088
 H        -4.701147         0.487986        -1.737438
 H        -4.090440         0.085131        -0.019458
 H        -3.708049         1.646253        -0.727764
 H        -2.907198        -1.015029        -3.185414
 H        -1.181856        -0.437295        -2.946005
 H        -2.795714        -1.775486        -0.584677
 H        -0.645008        -2.160309         0.251506
 H         0.065397        -1.507060        -1.302153
 H        -0.352309         2.024700         0.319663
 H         0.655647         1.188384        -0.970897
