19
Iteration:  4976charge 0 multiplicity 1
 C        -3.883745         0.756507        -2.016870
 C        -2.618399         0.214138        -1.408046
 C        -1.475591        -0.453533        -2.227158
 C        -2.134432        -1.229408        -1.019099
 C        -1.390325        -1.228606         0.370455
 C        -0.330827        -0.290214         0.348269
 O         0.866573        -0.573933         0.511518
 C        -0.751604         1.181392        -0.090830
 O        -2.070516         1.264786        -0.623695
 H        -4.683348         0.042667        -1.951932
 H        -4.198945         1.606754        -1.452133
 H        -3.805459         1.162773        -3.149934
 H        -1.802000        -0.922344        -3.228638
 H        -0.328100        -0.321698        -2.257409
 H        -2.678309        -2.176200        -1.070345
 H        -2.201667        -1.038631         1.073615
 H        -0.872568        -2.211452         0.467160
 H        -0.957788         1.820757         0.803114
 H        -0.009879         1.600859        -0.751922
