19
Iteration:   347charge 0 multiplicity 1
 C        -3.907183         0.646566        -1.416437
 C        -2.475661         0.090951        -1.536606
 C        -1.968005        -1.034430        -2.406981
 C        -2.123661        -1.237889        -0.951379
 C        -1.069816        -1.254844         0.076599
 C        -0.331600         0.022365         0.369763
 O         0.773479        -0.058297         0.818127
 C        -1.145513         1.244116         0.093550
 O        -1.502959         1.207244        -1.316565
 H        -3.948507         1.591475        -0.825555
 H        -4.377025         0.827142        -2.376430
 H        -4.618155         0.040866        -0.816556
 H        -2.658695        -1.641191        -3.005168
 H        -0.990470        -0.892826        -2.792415
 H        -2.891019        -1.898212        -0.653922
 H        -1.553693        -1.418276         1.027120
 H        -0.292019        -2.123830        -0.062985
 H        -2.042494         1.292328         0.658572
 H        -0.495753         2.156114         0.221568
