19
Iteration:  3154charge 0 multiplicity 1
 C        -3.835396         0.678102        -2.130457
 C        -2.495690         0.298727        -1.472060
 C        -1.739798        -0.803034        -2.208245
 C        -2.317172        -1.057493        -0.793690
 C        -1.241049        -1.405768         0.372673
 C        -0.266322        -0.270011         0.315241
 O         0.981975        -0.243762         0.244268
 C        -1.052984         1.066762         0.355746
 O        -1.791135         1.375981        -0.857029
 H        -4.133653         1.719619        -2.119705
 H        -4.037015         0.167903        -3.164719
 H        -4.651302         0.395271        -1.419352
 H        -1.864389        -1.445354        -3.060745
 H        -0.663555        -0.570726        -2.058017
 H        -3.158010        -1.592763        -0.850454
 H        -1.745896        -1.384153         1.382511
 H        -1.035382        -2.525244         0.214343
 H        -1.801937         1.208369         1.197688
 H        -0.382138         1.863362         0.556650
