19
Iteration:   294
 C        -3.941556         0.747644        -1.234408
 C        -2.523978         0.110320        -1.435144
 C        -2.146201        -0.951021        -2.476724
 C        -2.097654        -1.343058        -0.975415
 C        -0.851124        -1.421301        -0.038375
 C        -0.364156         0.000246         0.387728
 O         0.565372         0.202790         1.137701
 C        -0.978631         1.184867        -0.130201
 O        -1.426809         1.021539        -1.488433
 H        -4.260281         0.642757        -0.200396
 H        -3.898110         1.833382        -1.399845
 H        -4.707123         0.326801        -1.964936
 H        -3.004356        -1.443875        -2.977937
 H        -1.229031        -0.628887        -2.918395
 H        -2.838768        -1.981088        -0.655290
 H        -1.166158        -1.835642         0.918004
 H        -0.010019        -2.011842        -0.513231
 H        -1.814505         1.549898         0.486516
 H        -0.252627         2.062652        -0.183308
