19
Iteration:   699charge 0 multiplicity 1
 C        -3.763973         0.760663        -1.345658
 C        -2.442581         0.085120        -1.595267
 C        -2.315842        -1.060444        -2.567503
 C        -2.131404        -1.254414        -1.028657
 C        -0.827803        -1.316262        -0.160013
 C        -0.344586         0.005384         0.465108
 O         0.677153         0.045204         1.099968
 C        -1.237788         1.203087         0.138495
 O        -1.372876         1.134352        -1.296620
 H        -4.155101         1.428182        -2.100419
 H        -4.553628         0.076337        -1.087489
 H        -3.648502         1.442656        -0.503253
 H        -3.231935        -1.470780        -2.921310
 H        -1.460163        -1.142099        -3.200516
 H        -3.019707        -1.831847        -0.708353
 H        -0.978408        -2.011706         0.724638
 H         0.061018        -1.783261        -0.822301
 H        -2.202293         1.218654         0.619943
 H        -0.708055         2.161470         0.419931
