19
Iteration:  1229charge 0 multiplicity 1
 C        -3.847009         0.586354        -1.909678
 C        -2.352359         0.308390        -1.521755
 C        -1.590607        -0.796804        -2.160146
 C        -2.254462        -1.057107        -0.777756
 C        -1.405713        -1.378889         0.596510
 C        -0.342959        -0.298101         0.401895
 O         0.821698        -0.270644         0.040896
 C        -1.128025         1.117248         0.258215
 O        -1.613892         1.436572        -1.053618
 H        -3.926453         1.488512        -2.512415
 H        -4.314539        -0.274118        -2.434910
 H        -4.511330         0.819626        -0.973597
 H        -1.794559        -1.477817        -2.967987
 H        -0.587138        -0.462673        -2.011084
 H        -3.138665        -1.743047        -0.877868
 H        -2.142773        -1.124268         1.267580
 H        -1.243292        -2.403706         0.603137
 H        -1.931217         0.908406         1.017449
 H        -0.477609         1.882386         0.577282
