19
Iteration:  2060charge 0 multiplicity 1
 C        -3.892349         0.842056        -1.315826
 C        -2.514418         0.190019        -1.375033
 C        -2.173956        -0.823383        -2.483713
 C        -2.144296        -1.169475        -0.971777
 C        -0.844388        -1.398350        -0.271360
 C        -0.228415        -0.130157         0.346098
 O         0.400047        -0.100396         1.368922
 C        -0.925218         1.152568        -0.167895
 O        -1.444867         1.055264        -1.421291
 H        -4.133932         1.259145        -2.259781
 H        -4.609069         0.119691        -0.943941
 H        -3.800851         1.641269        -0.604214
 H        -2.914446        -1.330822        -3.064960
 H        -1.161019        -0.558769        -2.856456
 H        -2.998744        -1.760532        -0.629063
 H        -0.861692        -2.065498         0.668937
 H        -0.043453        -1.928265        -0.861621
 H        -1.713882         1.440465         0.518639
 H        -0.180998         1.975888        -0.097048
