19
Iteration:  4163charge 0 multiplicity 1
 C        -3.968790         0.634219        -1.582961
 C        -2.479182         0.285677        -1.439776
 C        -1.628578        -0.453522        -2.436304
 C        -2.167044        -1.217962        -1.200266
 C        -1.299078        -1.316613         0.040189
 C        -0.388988        -0.204229         0.273464
 O         0.493733        -0.283493         1.106575
 C        -0.467027         1.085923        -0.519439
 O        -1.846500         1.175373        -0.544066
 H        -4.601823        -0.253095        -1.876423
 H        -4.492035         1.093989        -0.638865
 H        -4.022540         1.396338        -2.327775
 H        -2.093149        -0.852637        -3.336552
 H        -0.553977        -0.289417        -2.539335
 H        -2.791499        -2.014009        -1.242793
 H        -1.942456        -1.552225         0.878429
 H        -0.710423        -2.290128        -0.036556
 H        -0.157747         1.791216         0.186350
 H        -0.029270         0.972427        -1.501636
