19
Iteration:  1637charge 0 multiplicity 1
 C        -3.883711         0.966440        -1.558179
 C        -2.520902         0.195599        -1.500295
 C        -2.341714        -1.052652        -2.387469
 C        -2.219125        -1.227346        -0.896946
 C        -0.744869        -1.213275        -0.395816
 C        -0.286869        -0.088339         0.565785
 O         0.682033        -0.213120         1.308706
 C        -1.080825         1.260207         0.026751
 O        -1.392500         1.004981        -1.343966
 H        -3.730434         1.951138        -2.156644
 H        -4.650747         0.419300        -2.179610
 H        -4.307403         1.373886        -0.631104
 H        -3.291123        -1.498358        -2.659608
 H        -1.475259        -1.262981        -2.985119
 H        -3.025235        -1.841166        -0.399918
 H        -0.525128        -2.267339        -0.044720
 H        -0.134861        -1.117854        -1.286935
 H        -1.934213         1.377925         0.714908
 H        -0.421065         2.132129         0.115441
