19
Iteration:  2955charge 0 multiplicity 1
 C        -3.785792         0.751281        -1.105936
 C        -2.453814         0.109275        -1.450671
 C        -2.319359        -0.941389        -2.524579
 C        -2.076618        -1.188881        -0.954784
 C        -0.701045        -1.277104        -0.508756
 C        -0.361713        -0.050063         0.427921
 O         0.069645        -0.118286         1.548527
 C        -0.700784         1.206081        -0.219666
 O        -1.403256         1.102755        -1.460724
 H        -3.958043         1.588306        -1.835873
 H        -4.696464         0.117217        -1.251333
 H        -3.867020         0.983852        -0.026696
 H        -3.151301        -1.417704        -3.000392
 H        -1.430854        -0.906405        -3.186848
 H        -2.959409        -1.681681        -0.446346
 H        -0.391074        -2.295677        -0.060624
 H        -0.063047        -1.028342        -1.355755
 H        -1.412250         1.773627         0.439321
 H         0.235678         1.833902        -0.474520
