19
Iteration:  4838charge 0 multiplicity 1
 C        -3.935288         0.589170        -1.681558
 C        -2.474181         0.303529        -1.457501
 C        -1.685024        -0.521392        -2.470822
 C        -2.156111        -1.109344        -1.189815
 C        -1.354548        -1.294385         0.142550
 C        -0.306209        -0.250485         0.348089
 O         0.662285        -0.493071         1.059007
 C        -0.541693         1.149915        -0.445116
 O        -1.962429         1.297066        -0.603720
 H        -4.429810        -0.042963        -2.394788
 H        -4.393994         0.535615        -0.635587
 H        -3.920398         1.557443        -2.013530
 H        -2.239596        -0.758387        -3.363336
 H        -0.627247        -0.475948        -2.644881
 H        -2.798020        -1.981210        -1.040709
 H        -2.209922        -0.909867         0.841547
 H        -0.818448        -2.217994         0.498788
 H        -0.124305         1.980169         0.132545
 H        -0.020683         1.072936        -1.434958
