19
Iteration:  2642
 C        -3.901931         0.724432        -1.608291
 C        -2.495817         0.258416        -1.529761
 C        -1.876484        -0.864696        -2.470573
 C        -2.173379        -1.129333        -0.968212
 C        -1.126097        -1.475169         0.164496
 C        -0.277005        -0.197590         0.419962
 O         0.867173        -0.172364         0.802897
 C        -1.040720         1.068638         0.116694
 O        -1.698538         1.384612        -1.153022
 H        -4.049003         1.238752        -2.558820
 H        -4.574649        -0.145986        -1.742826
 H        -4.205498         1.432601        -0.807663
 H        -2.424921        -1.404273        -3.226210
 H        -0.864812        -0.612502        -2.561507
 H        -3.134540        -1.607410        -0.852392
 H        -1.778731        -1.801528         1.030287
 H        -0.477185        -2.168771        -0.265185
 H        -1.858495         1.188326         0.883108
 H        -0.431891         1.907467         0.362769
