19
Iteration:   734
 C        -3.976393         0.733723        -1.455148
 C        -2.598484         0.159552        -1.457201
 C        -2.216576        -0.992647        -2.345890
 C        -2.181769        -1.138810        -0.776199
 C        -0.639599        -1.305232        -0.487685
 C        -0.273011        -0.083052         0.414460
 O         0.521041        -0.065655         1.336867
 C        -1.046360         1.215561        -0.031093
 O        -1.399638         1.090214        -1.393898
 H        -4.271959         0.977210        -2.496128
 H        -4.664525        -0.006338        -1.063100
 H        -3.993825         1.550127        -0.824222
 H        -2.994875        -1.491899        -2.921217
 H        -1.298912        -0.864547        -2.866040
 H        -2.933562        -1.819296        -0.380405
 H        -0.270901        -2.174744         0.007645
 H         0.013367        -1.106746        -1.401355
 H        -1.872866         1.531628         0.616787
 H        -0.276263         1.974943         0.071982
