19
Iteration:  3239charge 0 multiplicity 1
 C        -3.929440         0.654246        -1.933351
 C        -2.534712         0.255726        -1.469144
 C        -1.535960        -0.494242        -2.265619
 C        -2.209092        -1.199144        -1.035900
 C        -1.430681        -1.243300         0.300870
 C        -0.220836        -0.251472         0.271236
 O         0.912114        -0.356763         0.686596
 C        -0.677118         1.039736        -0.261841
 O        -2.136830         1.224825        -0.501999
 H        -3.860987         1.152752        -2.889268
 H        -4.610260        -0.285677        -1.961684
 H        -4.380324         1.299383        -1.204188
 H        -1.811798        -0.845152        -3.249609
 H        -0.535591        -0.089330        -2.368415
 H        -2.813748        -2.050616        -1.265724
 H        -1.962874        -0.889357         1.225700
 H        -1.139385        -2.253856         0.405018
 H        -0.527951         1.759827         0.497872
 H        -0.126471         1.201484        -1.242690
