19
Iteration:  4737
 C        -3.972274         0.738458        -1.746420
 C        -2.534117         0.224478        -1.513683
 C        -1.919884        -0.718624        -2.442742
 C        -2.377392        -1.110644        -1.034197
 C        -1.084239        -1.357611        -0.196077
 C        -0.166644        -0.202190         0.360124
 O         0.602434        -0.421598         1.270458
 C        -0.516129         1.213170        -0.228136
 O        -1.830043         1.294074        -0.752747
 H        -4.687378         0.041236        -2.197260
 H        -4.391820         0.943008        -0.804343
 H        -3.847701         1.784828        -2.162818
 H        -2.496355        -1.183248        -3.323551
 H        -0.819732        -0.602098        -2.544320
 H        -3.083443        -1.914632        -1.128726
 H        -1.393700        -1.931980         0.757834
 H        -0.359665        -1.932610        -0.905132
 H        -0.634315         1.929431         0.661156
 H         0.381964         1.491770        -0.839065
