19
Iteration:  1009charge 0 multiplicity 1
 C        -3.851267         0.680132        -1.299525
 C        -2.437258         0.238563        -1.514798
 C        -2.260264        -0.908367        -2.502723
 C        -2.188719        -1.151795        -1.016761
 C        -0.859868        -1.421603        -0.243681
 C        -0.368486        -0.156572         0.441329
 O         0.423474         0.004014         1.326191
 C        -0.779962         1.139464        -0.075437
 O        -1.433034         1.186388        -1.378387
 H        -4.269892         1.445041        -1.981595
 H        -4.580857        -0.140220        -1.433686
 H        -3.961384         1.006371        -0.255848
 H        -3.241038        -1.218544        -3.003246
 H        -1.443415        -0.861154        -3.238658
 H        -2.974623        -1.751797        -0.602766
 H        -0.924674        -2.226159         0.594363
 H         0.030865        -1.717607        -0.885254
 H        -1.486542         1.649446         0.577956
 H         0.145274         1.769548        -0.236103
