19
Iteration:  1817
 C        -3.755248         0.813049        -2.171353
 C        -2.554709         0.190867        -1.425185
 C        -1.934566        -0.978576        -2.207193
 C        -2.315913        -1.148429        -0.743230
 C        -1.182276        -1.360157         0.270605
 C        -0.258479        -0.199234         0.331910
 O         0.967950        -0.179369         0.462028
 C        -0.880140         1.122498         0.227029
 O        -1.860313         1.338017        -0.850179
 H        -3.404197         1.805021        -2.436060
 H        -4.138635         0.282133        -3.024531
 H        -4.776023         0.887191        -1.756529
 H        -2.618205        -1.469351        -2.937088
 H        -0.955297        -0.900522        -2.742155
 H        -3.248749        -1.676760        -0.635802
 H        -1.550611        -1.462365         1.267734
 H        -0.775843        -2.331955        -0.064295
 H        -1.417684         1.271241         1.245398
 H        -0.066639         1.813672         0.062555
