19
Iteration:  1536charge 0 multiplicity 1
 C        -3.772272         0.704045        -0.781085
 C        -2.561897         0.168377        -1.438381
 C        -2.279183        -0.904706        -2.618059
 C        -2.072131        -1.293745        -1.124556
 C        -0.674316        -1.282019        -0.450946
 C        -0.411787        -0.051255         0.445046
 O        -0.162159        -0.053538         1.644721
 C        -0.435923         1.170539        -0.456792
 O        -1.443272         1.139755        -1.528797
 H        -4.545374         1.261600        -1.371986
 H        -4.338981         0.010710        -0.148486
 H        -3.532935         1.474454        -0.036063
 H        -3.028072        -1.525493        -3.122889
 H        -1.305931        -0.580741        -3.129410
 H        -2.711629        -2.015091        -0.693112
 H        -0.268033        -2.164796         0.024828
 H        -0.033308        -1.034826        -1.393152
 H        -0.442310         2.097560         0.108154
 H         0.544165         0.996014        -0.831115
