19
Iteration:  2199
 C        -3.725010         0.633979        -0.828175
 C        -2.421808         0.166672        -1.425236
 C        -2.476197        -0.957521        -2.457838
 C        -2.053959        -1.282234        -0.958626
 C        -0.571000        -1.265911        -0.622240
 C        -0.229318        -0.013445         0.371849
 O        -0.431110        -0.079493         1.570280
 C        -0.475277         1.337199        -0.361518
 O        -1.270803         1.063776        -1.585494
 H        -4.160019         1.479610        -1.473009
 H        -4.451647        -0.225761        -0.899904
 H        -3.747695         1.015170         0.262589
 H        -3.478423        -1.329020        -2.589736
 H        -1.730172        -0.874864        -3.197700
 H        -2.754277        -1.924024        -0.408970
 H        -0.046099        -2.130564        -0.179411
 H         0.017333        -0.983559        -1.454249
 H        -1.157012         1.893575         0.389151
 H         0.339198         1.935829        -0.664254
