19
Iteration:  3921charge 0 multiplicity 1
 C        -3.708509         0.964274        -1.676068
 C        -2.496255         0.238819        -1.480286
 C        -2.192180        -0.792572        -2.572749
 C        -2.292341        -1.219181        -1.031733
 C        -0.949400        -1.456516        -0.199056
 C        -0.290885        -0.142518         0.523579
 O         0.855390        -0.201743         0.918928
 C        -1.264306         1.136105         0.414137
 O        -1.458122         1.095007        -1.039812
 H        -4.331385         0.323340        -2.305469
 H        -4.352286         1.277014        -0.846855
 H        -3.485174         1.909161        -2.234897
 H        -2.987125        -0.913765        -3.254677
 H        -1.149385        -0.918498        -2.968450
 H        -3.210659        -1.852245        -0.927162
 H        -1.165226        -2.300771         0.488627
 H        -0.049632        -1.800968        -0.853098
 H        -2.338119         1.079649         0.739623
 H        -0.756003         2.191392         0.530701
