19
Iteration:  1341charge 0 multiplicity 1
 C        -3.965417         0.639641        -1.523093
 C        -2.522216         0.260360        -1.425514
 C        -2.173773        -0.833444        -2.413155
 C        -2.230206        -1.160497        -0.879688
 C        -0.897028        -1.383027        -0.161660
 C        -0.281994        -0.154571         0.419439
 O         0.545972        -0.294106         1.304323
 C        -0.721771         1.282701        -0.127297
 O        -1.516528         1.274294        -1.387577
 H        -4.265531         1.175000        -2.465880
 H        -4.686991        -0.205449        -1.391926
 H        -4.220037         1.386659        -0.744365
 H        -2.957733        -1.274212        -3.113500
 H        -1.183492        -0.770684        -2.882068
 H        -3.027286        -1.705391        -0.337064
 H        -1.071862        -2.175069         0.522526
 H        -0.079685        -1.752180        -0.764529
 H        -1.358106         1.878376         0.552448
 H         0.080373         1.977975        -0.546559
