19
Iteration:    63charge 0 multiplicity 1
 C        -3.932416         0.654538        -1.178633
 C        -2.526454         0.052011        -1.270436
 C        -2.376075        -1.082769        -2.238242
 C        -1.954922        -1.286814        -0.761749
 C        -0.432644        -1.275066        -0.528779
 C        -0.256244         0.019229         0.223540
 O        -0.214177         0.069657         1.453801
 C        -0.422992         1.281306        -0.578707
 O        -1.580102         1.167314        -1.378074
 H        -4.591732         0.104810        -0.405124
 H        -3.858479         1.695327        -0.720746
 H        -4.358886         0.539481        -2.148646
 H        -3.305957        -1.527949        -2.545750
 H        -1.534461        -1.082661        -2.872597
 H        -2.569827        -2.033019        -0.100934
 H        -0.231524        -2.038128         0.253313
 H         0.222827        -1.398689        -1.395754
 H        -0.539159         2.147265         0.126400
 H         0.458958         1.493098        -1.238834
