19
Iteration:  1499charge 0 multiplicity 1
 C        -3.752872         0.752758        -0.813352
 C        -2.445035         0.104489        -1.234112
 C        -2.437429        -0.812008        -2.426462
 C        -1.868924        -1.234166        -1.071623
 C        -0.442000        -1.459545        -0.457898
 C        -0.303702        -0.080930         0.283665
 O        -0.503677        -0.035132         1.479122
 C        -0.436546         1.173825        -0.509986
 O        -1.475171         1.195410        -1.482968
 H        -3.873387         1.513641        -1.518601
 H        -4.459957        -0.035414        -0.946592
 H        -3.618598         1.161757         0.183604
 H        -3.265715        -1.410273        -2.822701
 H        -1.768064        -0.536518        -3.191659
 H        -2.693072        -1.906224        -0.643629
 H        -0.435002        -2.370771         0.193523
 H         0.220977        -1.708333        -1.360538
 H        -0.536303         2.060305         0.207661
 H         0.485805         1.371741        -1.116851
