19
Iteration:  2146charge 0 multiplicity 1
 C        -3.829792         0.889608        -0.930578
 C        -2.536727         0.160728        -1.429406
 C        -2.370934        -1.016718        -2.394610
 C        -1.935114        -1.202597        -0.950020
 C        -0.453140        -1.336828        -0.682765
 C        -0.272623        -0.120463         0.435743
 O        -0.228137        -0.130181         1.693929
 C        -0.677395         1.261514        -0.387383
 O        -1.395095         1.062173        -1.664067
 H        -3.771097         1.948941        -1.247213
 H        -4.818318         0.429920        -1.133362
 H        -3.827082         1.021325         0.195640
 H        -3.261185        -1.460356        -2.836826
 H        -1.483615        -0.779231        -2.958732
 H        -2.496539        -1.860786        -0.290635
 H        -0.355605        -2.337622        -0.170171
 H         0.311648        -1.156223        -1.425051
 H        -1.436656         1.809640         0.245022
 H         0.188257         1.874171        -0.627659
