19
Iteration:  1201
 C        -3.681283         0.687270        -1.983692
 C        -2.327200         0.175787        -1.396541
 C        -1.554924        -0.879702        -2.084031
 C        -2.234746        -1.172193        -0.745585
 C        -1.323506        -1.281565         0.438731
 C        -0.438386        -0.127880         0.338522
 O         0.657509        -0.360661        -0.128816
 C        -1.179105         1.291707         0.413295
 O        -1.687337         1.335381        -0.913774
 H        -3.412693         1.394987        -2.790383
 H        -4.295025        -0.137782        -2.353118
 H        -4.180241         1.304487        -1.311449
 H        -1.905138        -1.420596        -2.957561
 H        -0.410861        -0.765252        -2.084652
 H        -3.022577        -1.930735        -0.836458
 H        -2.062936        -1.327001         1.375422
 H        -0.811064        -2.302860         0.360327
 H        -1.927078         1.128824         1.150527
 H        -0.436467         2.174191         0.495916
