19
Iteration:  3813charge 0 multiplicity 1
 C        -3.934908         0.745109        -1.291932
 C        -2.508559         0.193026        -1.506747
 C        -1.979964        -0.532956        -2.626185
 C        -2.138433        -1.223135        -1.267590
 C        -1.116839        -1.417151        -0.135252
 C        -0.278890        -0.190750         0.440977
 O         0.588498        -0.352057         1.338195
 C        -0.803584         1.158628        -0.106269
 O        -1.596370         1.262480        -1.208587
 H        -4.599165        -0.019058        -1.723869
 H        -4.154824         0.848129        -0.174920
 H        -4.260652         1.583318        -1.888083
 H        -2.412154        -1.152624        -3.399905
 H        -1.003829        -0.077289        -2.885324
 H        -3.015366        -1.897850        -1.107135
 H        -1.622257        -1.796731         0.805470
 H        -0.216333        -2.143977        -0.267178
 H        -1.444442         1.463271         0.735668
 H         0.178881         1.862811        -0.092185
