19
Iteration:  2234
 C        -3.743176         0.781820        -0.781243
 C        -2.460157         0.162676        -1.411626
 C        -2.374511        -0.956360        -2.427316
 C        -1.873252        -1.258923        -1.090920
 C        -0.492942        -1.300841        -0.539307
 C        -0.537642        -0.046136         0.400627
 O        -0.238044        -0.117645         1.595832
 C        -0.695106         1.231391        -0.381371
 O        -1.353473         1.117265        -1.661620
 H        -4.315884         1.168471        -1.632524
 H        -4.375078        -0.026306        -0.265951
 H        -3.512507         1.608487        -0.051928
 H        -3.269414        -1.541343        -2.784441
 H        -1.793475        -0.748666        -3.329038
 H        -2.533872        -1.967706        -0.651602
 H        -0.286526        -2.113807         0.192483
 H         0.397466        -1.253336        -1.183237
 H        -0.913258         2.080837         0.312120
 H         0.353181         1.467244        -0.621896
