19
Iteration:  4712charge 0 multiplicity 1
 C        -3.984244         0.648582        -1.710559
 C        -2.452126         0.297070        -1.411581
 C        -1.983456        -0.613110        -2.494679
 C        -2.204130        -1.107720        -1.101560
 C        -1.065307        -1.440067        -0.064309
 C        -0.257999        -0.248136         0.335685
 O         0.552381        -0.394370         1.240073
 C        -0.507944         1.122926        -0.254246
 O        -1.835521         1.401762        -0.790490
 H        -4.399073        -0.140062        -2.391891
 H        -4.697789         0.619060        -0.902371
 H        -4.016721         1.715201        -2.126673
 H        -2.684119        -0.839821        -3.295640
 H        -0.955104        -0.740444        -2.712516
 H        -3.117246        -1.680120        -0.993073
 H        -1.551735        -1.741567         0.871315
 H        -0.380777        -2.214262        -0.558555
 H        -0.411983         1.879720         0.495214
 H         0.387882         1.145656        -0.980803
