19
Iteration:  4405
 C        -3.839099         0.842999        -2.150471
 C        -2.635232         0.199048        -1.405283
 C        -1.496923        -0.560860        -2.200309
 C        -2.224992        -1.237637        -0.987337
 C        -1.416883        -1.258522         0.358057
 C        -0.203070        -0.258774         0.293002
 O         0.975495        -0.475772         0.565349
 C        -0.735767         1.120230        -0.156267
 O        -2.164891         1.252055        -0.510161
 H        -4.140591         0.217239        -2.991626
 H        -4.815927         0.749388        -1.507113
 H        -3.617303         1.893928        -2.477877
 H        -1.861992        -0.954469        -3.114350
 H        -0.435094        -0.502395        -2.042927
 H        -3.034838        -2.021744        -1.179570
 H        -1.976058        -0.921926         1.240435
 H        -1.432810        -2.378984         0.735015
 H        -0.694586         1.841821         0.670091
 H        -0.152493         1.521385        -1.060393
