19
Iteration:  2395
 C        -3.950210         0.659957        -1.478148
 C        -2.536428         0.226119        -1.615466
 C        -2.086654        -0.937885        -2.520153
 C        -2.252761        -1.130972        -1.115478
 C        -1.102327        -1.245208        -0.107394
 C        -0.198253        -0.076467         0.455223
 O         0.820752        -0.151543         1.090042
 C        -0.972164         1.217715         0.180352
 O        -1.460611         1.114634        -1.211594
 H        -4.197864         1.423991        -2.193194
 H        -4.635322        -0.196436        -1.723790
 H        -4.225967         1.003176        -0.462297
 H        -2.882760        -1.372458        -3.085984
 H        -1.083562        -0.883863        -2.992051
 H        -3.140138        -1.668762        -0.903895
 H        -1.593021        -1.522251         0.881778
 H        -0.335908        -2.113624        -0.050096
 H        -1.842582         1.275492         0.831353
 H        -0.431500         2.121213         0.208746
