19
Iteration:   129charge 0 multiplicity 1
 C        -3.702272         0.397212        -0.564717
 C        -2.450392         0.122248        -1.447363
 C        -2.541303        -1.086186        -2.505584
 C        -2.009818        -1.265381        -1.042655
 C        -0.604387        -1.214458        -0.325253
 C        -0.460819         0.116647         0.396845
 O        -0.263387         0.237280         1.610754
 C        -0.438859         1.344316        -0.629417
 O        -1.267470         0.988449        -1.806990
 H        -4.702350         0.058423        -1.032024
 H        -3.574600        -0.218680         0.383132
 H        -3.890747         1.419495        -0.273054
 H        -3.469844        -1.527193        -2.644311
 H        -1.869638        -1.028285        -3.355322
 H        -2.775686        -1.795069        -0.417270
 H        -0.498277        -2.013353         0.410148
 H         0.210044        -1.279087        -1.078188
 H        -0.855793         2.281312        -0.137637
 H         0.584803         1.561235        -1.147507
