19
Iteration:  1954charge 0 multiplicity 1
 C        -3.883521         0.852385        -1.720991
 C        -2.490208         0.162550        -1.528883
 C        -1.947285        -0.906690        -2.445934
 C        -2.288253        -1.223290        -1.005490
 C        -1.203925        -1.381492         0.172144
 C        -0.309359        -0.122025         0.497291
 O         0.938527        -0.126513         0.678504
 C        -1.026295         1.191049         0.254137
 O        -1.599713         1.146940        -1.066336
 H        -3.611390         1.813662        -2.239192
 H        -4.540121         0.136115        -2.332627
 H        -4.424616         1.004976        -0.759255
 H        -2.538714        -1.199996        -3.314215
 H        -0.869462        -0.814010        -2.781708
 H        -3.130205        -1.882997        -0.828596
 H        -1.745088        -1.572919         1.046100
 H        -0.562503        -2.206951        -0.053623
 H        -1.802228         1.580556         0.917631
 H        -0.209376         1.975392         0.038283
