19
Iteration:  1227
 C        -3.840765         0.596814        -1.916597
 C        -2.365114         0.293889        -1.527425
 C        -1.573034        -0.800036        -2.141820
 C        -2.251202        -1.061502        -0.780409
 C        -1.396645        -1.370447         0.605621
 C        -0.358604        -0.294893         0.394047
 O         0.806080        -0.271320         0.022232
 C        -1.133627         1.111421         0.266092
 O        -1.613494         1.446290        -1.044025
 H        -3.922703         1.527069        -2.533923
 H        -4.272239        -0.303073        -2.410693
 H        -4.476381         0.855658        -0.976764
 H        -1.787388        -1.487081        -2.975992
 H        -0.575642        -0.491144        -2.052830
 H        -3.133576        -1.668795        -0.884080
 H        -2.139873        -1.155413         1.298220
 H        -1.172137        -2.440143         0.654444
 H        -1.940297         0.865999         1.010562
 H        -0.431303         1.836370         0.556954
