19
Iteration:  1374charge 0 multiplicity 1
 C        -3.834269         0.789438        -1.136980
 C        -2.464303         0.234943        -1.548449
 C        -2.323267        -1.032150        -2.538906
 C        -2.169872        -1.180858        -1.057785
 C        -0.813624        -1.314875        -0.453630
 C        -0.394195        -0.123125         0.471629
 O         0.328453        -0.096613         1.480134
 C        -0.820515         1.250669        -0.106509
 O        -1.337571         1.079473        -1.448706
 H        -4.138045         1.648424        -1.800585
 H        -4.540100        -0.059834        -0.956321
 H        -3.565934         1.174288        -0.129665
 H        -3.284695        -1.458203        -2.968386
 H        -1.383712        -1.007945        -3.083796
 H        -2.918910        -1.707124        -0.467991
 H        -0.684505        -2.130651         0.215432
 H         0.029855        -1.270069        -1.082062
 H        -1.502804         1.760885         0.620621
 H         0.159983         1.866038        -0.244402
