19
Iteration:  3026charge 0 multiplicity 1
 C        -3.971403         0.805152        -1.669648
 C        -2.531590         0.174824        -1.485541
 C        -2.038311        -0.925498        -2.475239
 C        -2.283958        -1.184414        -0.935791
 C        -0.950216        -1.383572        -0.162038
 C        -0.265233        -0.178423         0.436269
 O         0.721617        -0.124896         1.121706
 C        -0.920116         1.235259         0.098127
 O        -1.537499         1.199949        -1.167687
 H        -4.257724         0.937808        -2.697236
 H        -4.810689         0.263480        -1.251457
 H        -4.081396         1.690602        -1.065895
 H        -2.803072        -1.354052        -3.130245
 H        -0.987512        -1.075169        -2.848819
 H        -3.108605        -1.667381        -0.433350
 H        -1.120430        -2.004930         0.667724
 H        -0.242387        -1.965332        -0.825526
 H        -1.606981         1.517823         0.895124
 H        -0.199807         1.971334        -0.085166
