19
Iteration:  4656charge 0 multiplicity 1
 C        -3.976081         0.753776        -1.522117
 C        -2.583553         0.239991        -1.497939
 C        -1.691228        -0.556695        -2.516607
 C        -2.121622        -1.212875        -1.181320
 C        -1.265798        -1.307834        -0.016816
 C        -0.238329        -0.266682         0.287288
 O         0.518428        -0.327740         1.242930
 C        -0.449791         1.081245        -0.441653
 O        -1.919412         1.221589        -0.678217
 H        -4.682774        -0.029517        -1.818866
 H        -4.214110         1.038875        -0.467467
 H        -4.288725         1.604866        -2.114904
 H        -2.081887        -0.866380        -3.396758
 H        -0.707585        -0.098796        -2.661117
 H        -2.926950        -1.902105        -1.439276
 H        -1.912514        -1.364156         0.863213
 H        -0.795688        -2.361204        -0.091822
 H        -0.203255         1.876087         0.200352
 H         0.322579         1.057403        -1.256625
