19
Iteration:   465charge 0 multiplicity 1
 C        -3.959967         0.533992        -1.911253
 C        -2.561318         0.129348        -1.412560
 C        -1.519584        -0.605151        -2.187986
 C        -2.051275        -1.196749        -0.840401
 C        -1.307711        -1.294890         0.497817
 C        -0.296546        -0.181648         0.369748
 O         0.898900        -0.254827         0.318072
 C        -0.895211         1.172681        -0.096433
 O        -2.089992         1.281944        -0.846951
 H        -3.833538         1.253342        -2.749919
 H        -4.555733        -0.319363        -2.147524
 H        -4.346819         1.195632        -1.186439
 H        -1.618569        -1.062879        -3.117389
 H        -0.556872        -0.111557        -2.118955
 H        -2.717156        -1.976768        -1.101380
 H        -2.071526        -1.174353         1.279189
 H        -0.742225        -2.215529         0.576743
 H        -1.151377         1.706631         0.834944
 H        -0.068522         1.610068        -0.680973
