19
Iteration:  4817
 C        -4.047416         0.606384        -1.700092
 C        -2.504167         0.283057        -1.483880
 C        -1.697951        -0.513483        -2.466251
 C        -2.220610        -1.123642        -1.133718
 C        -1.326716        -1.213614         0.007444
 C        -0.188531        -0.203054         0.313281
 O         0.612193        -0.513654         1.168181
 C        -0.431745         1.149408        -0.381918
 O        -1.925645         1.258973        -0.615291
 H        -4.537296        -0.268794        -2.104246
 H        -4.476798         0.825543        -0.645506
 H        -4.290163         1.284342        -2.390137
 H        -2.164217        -1.020608        -3.296144
 H        -0.664128        -0.274474        -2.516825
 H        -3.085544        -1.857959        -1.135348
 H        -1.905831        -1.469630         0.944676
 H        -0.656988        -2.097393        -0.047908
 H        -0.133481         2.106626         0.012609
 H         0.115289         1.056840        -1.341480
