19
Iteration:  4336
 C        -3.958522         0.592224        -1.952141
 C        -2.602730         0.332722        -1.500827
 C        -1.650338        -0.518395        -2.299188
 C        -2.233801        -1.066567        -0.996962
 C        -1.317527        -1.295815         0.197584
 C        -0.222205        -0.378510         0.299508
 O         0.885373        -0.507335         0.804625
 C        -0.706228         1.116872        -0.021505
 O        -1.969673         1.380839        -0.814332
 H        -4.585198        -0.285979        -2.209559
 H        -4.472795         0.991969        -1.067975
 H        -4.149858         1.295874        -2.710407
 H        -1.988631        -1.068642        -3.238510
 H        -0.573222        -0.260645        -2.267242
 H        -2.979102        -1.804348        -1.074573
 H        -1.761074        -1.139511         1.176224
 H        -0.860933        -2.278657         0.453716
 H        -0.920305         1.476045         0.973409
 H         0.122121         1.736987        -0.436333
