19
Iteration:   740charge 0 multiplicity 1
 C        -3.989295         0.722895        -1.472623
 C        -2.587722         0.182924        -1.442176
 C        -2.245343        -1.037426        -2.370542
 C        -2.154318        -1.190837        -0.797642
 C        -0.596621        -1.261034        -0.474229
 C        -0.264195        -0.074523         0.419938
 O         0.476580        -0.085114         1.374648
 C        -0.944358         1.230865        -0.049802
 O        -1.475182         1.123149        -1.389242
 H        -4.225632         1.038844        -2.487767
 H        -4.755385         0.004262        -1.121887
 H        -4.060089         1.713070        -0.870553
 H        -3.096898        -1.460338        -2.910324
 H        -1.374258        -0.845288        -3.046305
 H        -2.799435        -1.893131        -0.233042
 H        -0.324158        -2.261969        -0.020244
 H        -0.020221        -1.282909        -1.413736
 H        -1.637075         1.502161         0.793987
 H        -0.157751         2.035143        -0.044013
