19
Iteration:   992charge 0 multiplicity 1
 C        -3.845242         0.820341        -1.303394
 C        -2.494539         0.157606        -1.490090
 C        -2.389888        -0.960156        -2.443397
 C        -2.075147        -1.230004        -0.945227
 C        -0.666809        -1.345296        -0.398870
 C        -0.311270        -0.057024         0.435153
 O         0.307478        -0.167785         1.471252
 C        -0.868757         1.247803        -0.138523
 O        -1.406523         1.138045        -1.452164
 H        -3.915575         1.617122        -2.045790
 H        -4.649667         0.086744        -1.426212
 H        -4.023276         1.341779        -0.337237
 H        -3.258918        -1.354810        -2.868486
 H        -1.502627        -1.082697        -3.074611
 H        -2.873762        -1.717617        -0.362546
 H        -0.589999        -2.204767         0.206045
 H         0.018601        -1.424295        -1.222662
 H        -1.540031         1.671923         0.661921
 H        -0.072758         1.972460        -0.259857
