19
Iteration:  1166
 C        -3.597113         0.769070        -2.216557
 C        -2.479082         0.162368        -1.457828
 C        -1.709687        -0.978836        -2.087569
 C        -2.330555        -1.172647        -0.731393
 C        -1.298308        -1.314102         0.403413
 C        -0.376384        -0.162580         0.266702
 O         0.782353        -0.061539        -0.036287
 C        -0.995907         1.116589         0.477256
 O        -1.767655         1.253604        -0.736644
 H        -3.182055         1.170301        -3.089637
 H        -4.178746        -0.072179        -2.541841
 H        -4.183353         1.434544        -1.610745
 H        -2.396750        -1.429858        -2.839599
 H        -0.684180        -1.198820        -2.324747
 H        -3.190243        -1.911692        -0.663177
 H        -2.028273        -1.014329         1.312344
 H        -0.854696        -2.283300         0.624161
 H        -1.640897         1.308752         1.311736
 H        -0.261047         1.924613         0.482372
