19
Iteration:  2482
 C        -3.796479         0.663048        -1.866743
 C        -2.437316         0.185295        -1.452141
 C        -1.891205        -0.945364        -2.375758
 C        -2.270681        -1.155143        -0.884074
 C        -1.209002        -1.255814         0.191126
 C        -0.286313        -0.141008         0.300621
 O         0.967435        -0.232044         0.452102
 C        -1.167264         1.199907         0.404322
 O        -1.650491         1.337025        -0.963672
 H        -3.614131         1.288136        -2.703985
 H        -4.375360        -0.123291        -2.367692
 H        -4.328535         1.157575        -1.065476
 H        -2.727165        -1.286510        -3.048455
 H        -0.878354        -1.125195        -2.747490
 H        -3.184541        -1.675487        -0.633519
 H        -1.791474        -1.261791         1.101786
 H        -0.627947        -2.249009         0.130437
 H        -1.973930         0.941686         1.151966
 H        -0.664512         2.082531         0.706392
