19
Iteration:   413charge 0 multiplicity 1
 C        -3.894560         0.442329        -2.046275
 C        -2.495714         0.159458        -1.449706
 C        -1.913316        -0.950566        -2.291343
 C        -2.278656        -1.105711        -0.674446
 C        -1.043902        -1.192607         0.092115
 C        -0.160068        -0.055367         0.186394
 O         0.974050        -0.286457         0.673691
 C        -0.959743         1.286049         0.117388
 O        -2.011618         1.367437        -0.837512
 H        -3.848435         1.536374        -2.104365
 H        -4.003482        -0.056800        -3.001532
 H        -4.685049         0.204377        -1.259190
 H        -2.558404        -1.338587        -3.049319
 H        -0.807466        -1.065186        -2.545293
 H        -3.083996        -1.737776        -0.479584
 H        -1.332436        -1.221860         1.123670
 H        -0.354327        -2.144706        -0.128371
 H        -1.347151         1.400480         1.155796
 H        -0.239338         2.164066        -0.141234
