19
Iteration:    79
 C        -3.871460         0.747337        -0.980421
 C        -2.532563         0.065070        -1.301670
 C        -2.241535        -1.073355        -2.246264
 C        -1.903650        -1.395763        -0.843179
 C        -0.435119        -1.383454        -0.442897
 C        -0.241144        -0.007169         0.244021
 O        -0.318624         0.214744         1.411639
 C        -0.468810         1.207752        -0.601089
 O        -1.639161         1.152681        -1.443113
 H        -4.607893         0.076710        -0.655032
 H        -3.693700         1.494973        -0.227031
 H        -4.297783         1.385752        -1.830439
 H        -3.184627        -1.585955        -2.561538
 H        -1.480692        -0.961848        -3.100232
 H        -2.530944        -2.030718        -0.353671
 H        -0.132019        -2.273640         0.082737
 H         0.088042        -1.369978        -1.415609
 H        -0.661115         2.024240         0.069254
 H         0.315697         1.476513        -1.279982
