19
Iteration:  4025charge 0 multiplicity 1
 C        -4.014231         0.685034        -1.650493
 C        -2.619612         0.287432        -1.494625
 C        -1.959689        -0.589145        -2.600392
 C        -2.232795        -1.146609        -1.135603
 C        -1.148602        -1.397379         0.017107
 C        -0.288535        -0.184839         0.539212
 O         0.836863        -0.416887         1.038228
 C        -0.821780         1.163948         0.173823
 O        -1.569204         1.268583        -1.114791
 H        -4.603455        -0.234607        -1.720232
 H        -4.293303         1.176205        -0.760001
 H        -4.173712         1.257086        -2.537705
 H        -2.600261        -0.919344        -3.370216
 H        -0.899318        -0.462754        -2.995306
 H        -3.091031        -1.867723        -1.166271
 H        -1.437201        -1.835056         0.982448
 H        -0.414927        -2.086539        -0.288603
 H        -1.501832         1.658669         0.952467
 H        -0.047086         1.895390         0.102978
