19
Iteration:  4259
 C        -3.955837         0.701149        -1.749038
 C        -2.485365         0.290932        -1.578091
 C        -1.774106        -0.770408        -2.375925
 C        -2.300883        -1.099837        -0.964739
 C        -1.174697        -1.426263        -0.090440
 C        -0.253698        -0.262182         0.290199
 O         0.727492        -0.375353         1.049978
 C        -0.727620         1.186676        -0.061085
 O        -1.848263         1.421152        -0.818596
 H        -4.483719        -0.022464        -2.437237
 H        -4.588787         0.722711        -0.850151
 H        -3.975411         1.694895        -2.173338
 H        -2.278487        -1.247268        -3.280011
 H        -0.694716        -0.676738        -2.370769
 H        -3.112975        -1.777231        -0.945072
 H        -1.395668        -1.759903         0.912079
 H        -0.562740        -2.301001        -0.451197
 H        -0.953023         1.613961         0.904613
 H         0.227320         1.617152        -0.491470
