19
Iteration:   993
 C        -3.844958         0.813182        -1.306510
 C        -2.494666         0.159455        -1.494544
 C        -2.385011        -0.954826        -2.448890
 C        -2.079743        -1.229872        -0.946141
 C        -0.672551        -1.346857        -0.387717
 C        -0.318956        -0.067001         0.432152
 O         0.314711        -0.158064         1.465676
 C        -0.866815         1.246768        -0.140304
 O        -1.407739         1.140747        -1.445854
 H        -3.925301         1.644561        -2.053900
 H        -4.641426         0.038069        -1.418357
 H        -4.011816         1.327033        -0.322878
 H        -3.272915        -1.347190        -2.856340
 H        -1.507427        -1.071338        -3.082908
 H        -2.897543        -1.712605        -0.371512
 H        -0.605886        -2.199121         0.223586
 H         0.034824        -1.447763        -1.218562
 H        -1.514566         1.659106         0.668857
 H        -0.029813         1.965891        -0.218448
