19
Iteration:  1195charge 0 multiplicity 1
 C        -3.592454         0.694373        -2.009018
 C        -2.431546         0.110424        -1.401672
 C        -1.588050        -0.900455        -2.091039
 C        -2.274784        -1.208131        -0.792908
 C        -1.356240        -1.325812         0.419318
 C        -0.378374        -0.062588         0.403167
 O         0.678786        -0.336521        -0.163889
 C        -1.128824         1.336862         0.445455
 O        -1.696549         1.331642        -0.867285
 H        -3.255547         1.251104        -2.911156
 H        -4.205478        -0.148208        -2.384243
 H        -4.083931         1.388604        -1.219056
 H        -1.922205        -1.396442        -3.011600
 H        -0.550191        -0.816135        -2.112291
 H        -3.169770        -1.834041        -0.813895
 H        -2.010324        -1.392642         1.212176
 H        -0.754747        -2.209026         0.480368
 H        -1.993894         1.300693         1.210059
 H        -0.576949         2.231423         0.505121
