19
Iteration:  3252
 C        -3.959376         0.575311        -1.949319
 C        -2.640376         0.212712        -1.376120
 C        -1.596221        -0.428813        -2.284291
 C        -2.131985        -1.147396        -1.081017
 C        -1.379656        -1.170071         0.206771
 C        -0.199422        -0.271382         0.251719
 O         0.883369        -0.448156         0.828360
 C        -0.640360         1.131067        -0.351743
 O        -2.078371         1.184323        -0.480022
 H        -4.001408         0.975792        -2.993645
 H        -4.737348        -0.285400        -1.924461
 H        -4.317331         1.350334        -1.249950
 H        -2.153240        -0.746059        -3.208555
 H        -0.524550        -0.357218        -2.291633
 H        -2.764129        -1.930790        -1.289312
 H        -2.161401        -0.753072         0.939761
 H        -1.085283        -2.185899         0.622269
 H        -0.268303         1.942654         0.290994
 H        -0.114176         1.415941        -1.280546
