19
Iteration:  2113charge 0 multiplicity 1
 C        -3.659842         0.691981        -1.054450
 C        -2.381353         0.130126        -1.451285
 C        -2.481051        -0.882597        -2.431543
 C        -2.059614        -1.263095        -1.009940
 C        -0.691430        -1.195802        -0.479877
 C        -0.493926        -0.055114         0.414549
 O         0.064136        -0.124340         1.506323
 C        -0.748754         1.259193        -0.245611
 O        -1.318927         1.034305        -1.529947
 H        -3.951663         1.494100        -1.763025
 H        -4.468222        -0.038152        -1.091379
 H        -3.565868         1.090403        -0.025419
 H        -3.437619        -1.094936        -2.801202
 H        -1.781388        -0.848958        -3.270525
 H        -2.710900        -1.901838        -0.392963
 H        -0.518191        -2.089471         0.179107
 H         0.157532        -1.104718        -1.154202
 H        -1.450327         1.943301         0.249844
 H         0.174037         1.800445        -0.293788
