19
Iteration:  1162charge 0 multiplicity 1
 C        -3.569715         0.746269        -2.223398
 C        -2.485289         0.187509        -1.461052
 C        -1.730704        -0.992831        -2.088687
 C        -2.322076        -1.131690        -0.715875
 C        -1.307436        -1.323289         0.394252
 C        -0.343065        -0.182317         0.261954
 O         0.820913        -0.070170        -0.008178
 C        -1.033815         1.094919         0.447777
 O        -1.799401         1.267969        -0.750792
 H        -3.162269         1.312887        -3.120013
 H        -4.293161        -0.066908        -2.492440
 H        -4.304138         1.430980        -1.629014
 H        -2.447331        -1.523990        -2.705164
 H        -0.655710        -1.087719        -2.192846
 H        -3.157732        -1.795856        -0.602236
 H        -1.822605        -0.958603         1.213279
 H        -0.832426        -2.291260         0.518467
 H        -1.679593         1.213853         1.404468
 H        -0.293112         1.857340         0.510104
