19
Iteration:  4687charge 0 multiplicity 1
 C        -3.996786         0.752590        -1.573833
 C        -2.524105         0.275499        -1.450732
 C        -1.759230        -0.502561        -2.458241
 C        -2.133803        -1.155484        -1.133971
 C        -1.165468        -1.520424         0.010431
 C        -0.377617        -0.288492         0.444460
 O         0.595803        -0.303318         1.193340
 C        -0.533897         1.019410        -0.385953
 O        -1.873295         1.361624        -0.862938
 H        -4.473468        -0.100018        -2.063112
 H        -4.622217         0.707991        -0.577111
 H        -4.161612         1.680452        -2.041059
 H        -2.216403        -0.808377        -3.343691
 H        -0.750851        -0.062769        -2.585342
 H        -3.078364        -1.800856        -1.238367
 H        -1.677898        -1.945505         0.835500
 H        -0.521368        -2.181418        -0.477768
 H        -0.186973         1.865629         0.178724
 H         0.198267         0.781479        -1.219040
