19
Iteration:  4215
 C        -4.004849         0.683703        -1.793068
 C        -2.612137         0.237414        -1.377936
 C        -1.831879        -0.521316        -2.487503
 C        -2.149587        -1.175314        -1.087872
 C        -1.137246        -1.391013         0.057107
 C        -0.292558        -0.196038         0.379703
 O         0.682838        -0.387586         1.144568
 C        -0.560806         1.108758        -0.229697
 O        -1.853518         1.295684        -0.823765
 H        -4.567614         0.017156        -2.446474
 H        -4.633147         0.743985        -0.919571
 H        -4.121219         1.688441        -2.186937
 H        -2.415597        -1.069267        -3.224572
 H        -0.997051         0.069394        -2.936245
 H        -2.963122        -1.890617        -1.102478
 H        -1.710789        -1.737691         0.916520
 H        -0.519838        -2.293866        -0.153475
 H        -0.381435         1.781707         0.573448
 H         0.293055         1.237698        -1.001250
