19
Iteration:   686charge 0 multiplicity 1
 C        -3.750078         0.810359        -1.341954
 C        -2.437428         0.121022        -1.548273
 C        -2.250731        -1.019144        -2.586690
 C        -2.080567        -1.346741        -1.101855
 C        -0.913352        -1.432560        -0.105939
 C        -0.320729        -0.032054         0.413148
 O         0.715006         0.133696         1.052573
 C        -1.215587         1.232046         0.160807
 O        -1.501176         1.129150        -1.271344
 H        -3.751549         1.529099        -2.137817
 H        -4.632279         0.151305        -1.365981
 H        -3.689807         1.222439        -0.264639
 H        -3.168807        -1.446838        -3.019171
 H        -1.358330        -1.093894        -3.314136
 H        -2.885065        -1.888811        -0.569919
 H        -1.461901        -1.828861         0.874447
 H        -0.015332        -2.227396        -0.305931
 H        -2.082758         1.295041         0.850887
 H        -0.553308         2.128329         0.229912
