19
Iteration:  1275charge 0 multiplicity 1
 C        -3.875600         0.738654        -1.830638
 C        -2.524289         0.129502        -1.481172
 C        -1.861655        -0.919171        -2.340072
 C        -2.264403        -1.226921        -0.920733
 C        -1.204820        -1.314626         0.156346
 C        -0.300833        -0.134828         0.372030
 O         0.889881        -0.300754         0.649484
 C        -0.930294         1.350425         0.213062
 O        -1.724913         1.304597        -1.028550
 H        -3.669964         1.680697        -2.339414
 H        -4.429076        -0.020238        -2.410001
 H        -4.448909         0.981968        -0.909963
 H        -2.538390        -1.273157        -3.108824
 H        -0.747649        -0.918714        -2.507036
 H        -3.190112        -1.852201        -0.767711
 H        -1.737869        -1.465578         1.104115
 H        -0.604534        -2.184422        -0.042828
 H        -1.536136         1.565661         1.133142
 H         0.000743         1.980702         0.039100
