19
Iteration:  2050charge 0 multiplicity 1
 C        -3.905010         0.822764        -1.401328
 C        -2.539307         0.169486        -1.430189
 C        -2.216848        -0.811792        -2.450419
 C        -2.172544        -1.268175        -0.972210
 C        -0.816776        -1.489179        -0.186235
 C        -0.318683        -0.116077         0.389863
 O         0.519107        -0.113375         1.308395
 C        -0.918867         1.307768        -0.062355
 O        -1.398037         1.102459        -1.405029
 H        -4.075650         1.246985        -2.368530
 H        -4.716506         0.116361        -1.160222
 H        -3.971853         1.631551        -0.698299
 H        -3.019881        -1.146518        -3.104781
 H        -1.273891        -0.543983        -3.018682
 H        -2.991896        -1.917628        -0.680168
 H        -1.054300        -2.305893         0.553912
 H        -0.152446        -1.941330        -0.977712
 H        -1.684135         1.552903         0.688682
 H        -0.144656         2.134742        -0.170038
