19
Iteration:  1098
 C        -3.954370         0.601383        -1.906142
 C        -2.464800         0.246956        -1.436814
 C        -1.800901        -0.815220        -2.329113
 C        -2.291387        -1.146789        -0.849452
 C        -1.267668        -1.357290         0.267719
 C        -0.324209        -0.170674         0.409989
 O         0.906655        -0.179843         0.517637
 C        -0.917286         1.168820         0.189175
 O        -1.669534         1.306185        -1.045321
 H        -3.964223         1.429730        -2.578997
 H        -4.449367        -0.216905        -2.411674
 H        -4.466320         0.830068        -0.941791
 H        -2.280746        -1.344128        -3.129307
 H        -0.699834        -0.800779        -2.397516
 H        -3.229652        -1.686259        -0.836704
 H        -1.788497        -1.451815         1.312549
 H        -0.730675        -2.310576         0.172372
 H        -1.530283         1.294770         1.097029
 H        -0.207828         1.948312         0.160027
