19
Iteration:   292charge 0 multiplicity 1
 C        -3.954526         0.765122        -1.244766
 C        -2.541899         0.108140        -1.429038
 C        -2.146610        -0.953714        -2.471843
 C        -2.077562        -1.351888        -0.972117
 C        -0.837903        -1.438697        -0.044004
 C        -0.353545         0.010955         0.390971
 O         0.556402         0.193679         1.154970
 C        -0.972272         1.197256        -0.152244
 O        -1.442717         1.029766        -1.486841
 H        -4.299270         0.634760        -0.198761
 H        -3.853432         1.838744        -1.375975
 H        -4.655337         0.395990        -1.974651
 H        -2.961699        -1.446761        -2.988548
 H        -1.237137        -0.706837        -2.905767
 H        -2.857953        -1.985271        -0.616690
 H        -1.089991        -1.865202         0.911224
 H        -0.024994        -2.037436        -0.581988
 H        -1.755565         1.541949         0.485566
 H        -0.276937         2.045290        -0.218314
