19
Iteration:   635charge 0 multiplicity 1
 C        -4.137139         0.525370        -1.573430
 C        -2.517463         0.215903        -1.499194
 C        -1.853271        -0.946439        -2.360538
 C        -2.218748        -1.121895        -0.933143
 C        -1.051118        -1.278788         0.044906
 C        -0.257738        -0.066591         0.429834
 O         0.893886        -0.218300         0.843086
 C        -1.031669         1.280884         0.049910
 O        -1.610944         1.291832        -1.222996
 H        -4.266849         1.557982        -1.908685
 H        -4.676685        -0.144089        -2.244257
 H        -4.429127         0.314754        -0.583642
 H        -2.414663        -1.433744        -3.082818
 H        -0.830815        -0.776049        -2.681124
 H        -3.008728        -1.859405        -0.656991
 H        -1.432154        -1.620798         0.960266
 H        -0.354566        -2.027484        -0.350563
 H        -1.807521         1.408701         0.825435
 H        -0.299254         2.142521         0.051219
