19
Iteration:  2221
 C        -3.766159         0.655174        -0.811608
 C        -2.464109         0.189028        -1.393884
 C        -2.416020        -0.815057        -2.458071
 C        -1.923511        -1.188272        -1.020146
 C        -0.440631        -1.232033        -0.590077
 C        -0.444410        -0.095848         0.399613
 O        -0.322369        -0.052629         1.599706
 C        -0.626221         1.194817        -0.383924
 O        -1.305797         0.967401        -1.649342
 H        -4.422461         1.260213        -1.495339
 H        -4.367008        -0.180230        -0.339890
 H        -3.558423         1.402885         0.045358
 H        -3.355183        -1.288595        -2.730241
 H        -1.562890        -0.698741        -3.041803
 H        -2.574477        -1.668436        -0.307576
 H        -0.408757        -2.222732        -0.101077
 H         0.223579        -1.153997        -1.415346
 H        -1.179076         2.077934         0.066604
 H         0.396401         1.370099        -0.632040
