19
Iteration:  1378
 C        -3.818987         0.819431        -1.098811
 C        -2.471725         0.189104        -1.542917
 C        -2.350758        -1.012285        -2.527008
 C        -2.151301        -1.177503        -1.061674
 C        -0.775348        -1.346951        -0.473443
 C        -0.385738        -0.111025         0.461895
 O         0.290723        -0.077783         1.512019
 C        -0.844051         1.260267        -0.136158
 O        -1.321555         1.055244        -1.472131
 H        -4.084047         1.683442        -1.687308
 H        -4.633345         0.118421        -0.977619
 H        -3.501891         1.171494        -0.144698
 H        -3.224322        -1.387154        -2.993818
 H        -1.432642        -0.981833        -3.125800
 H        -2.922886        -1.713643        -0.543376
 H        -0.549089        -2.205222         0.254154
 H         0.073961        -1.316818        -1.237998
 H        -1.537377         1.663956         0.630571
 H         0.063660         1.904656        -0.116358
