19
Iteration:   390
 C        -4.068607         0.600366        -2.005583
 C        -2.691673         0.210876        -1.419311
 C        -1.899366        -0.897113        -2.200231
 C        -2.262023        -1.229095        -0.774871
 C        -1.025948        -1.393730         0.122220
 C        -0.150619        -0.122630         0.365809
 O         1.019643        -0.044989         0.732428
 C        -0.910133         1.178860         0.080065
 O        -1.832251         1.314637        -1.057652
 H        -4.076882         1.727373        -1.966218
 H        -4.066006         0.246853        -3.026114
 H        -4.883951         0.174928        -1.410900
 H        -2.409910        -1.464089        -2.947859
 H        -0.858505        -0.743725        -2.446520
 H        -3.109388        -1.851026        -0.626153
 H        -1.337231        -1.743726         1.084522
 H        -0.260356        -2.150817        -0.337473
 H        -1.472549         1.265732         1.051458
 H        -0.229267         2.096892        -0.030169
