19
Iteration:  4359charge 0 multiplicity 1
 C        -3.836282         0.576570        -1.896498
 C        -2.510877         0.290393        -1.381760
 C        -1.547463        -0.644403        -2.271724
 C        -2.296659        -1.161694        -1.043432
 C        -1.428782        -1.346768         0.181529
 C        -0.329687        -0.233775         0.278385
 O         0.789501        -0.520971         0.652566
 C        -0.675758         1.285377        -0.079095
 O        -1.963913         1.409949        -0.652494
 H        -4.272367        -0.285631        -2.459189
 H        -4.655323         0.860034        -1.157044
 H        -3.750926         1.363144        -2.594165
 H        -1.930957        -0.736118        -3.297954
 H        -0.413584        -0.679240        -2.118299
 H        -3.052257        -1.907214        -1.180239
 H        -2.049904        -1.383030         1.066405
 H        -0.769487        -2.242868         0.489069
 H        -0.650232         1.871446         0.813358
 H         0.021825         1.757487        -0.844547
