19
Iteration:  4616charge 0 multiplicity 1
 C        -3.945030         0.616538        -1.760139
 C        -2.546614         0.318574        -1.409816
 C        -1.855105        -0.510835        -2.499495
 C        -2.264499        -1.144335        -1.214849
 C        -1.248460        -1.397945         0.015970
 C        -0.185058        -0.204003         0.362073
 O         0.671449        -0.374401         1.225935
 C        -0.474372         1.047216        -0.346399
 O        -1.909299         1.302955        -0.618191
 H        -4.409640        -0.302839        -2.190170
 H        -4.528760         0.818989        -0.916591
 H        -3.886614         1.530464        -2.475294
 H        -2.503312        -0.642881        -3.404358
 H        -0.769929        -0.289284        -2.626616
 H        -2.980585        -1.927247        -1.181643
 H        -1.946662        -1.392855         0.898274
 H        -0.532696        -2.264041        -0.132456
 H        -0.136642         2.006226         0.091224
 H        -0.088903         0.935770        -1.363749
