19
Iteration:  1736
 C        -3.950068         0.528705        -1.524555
 C        -2.471518         0.166418        -1.523227
 C        -1.892680        -0.676331        -2.573194
 C        -2.161441        -1.262533        -1.086608
 C        -1.399056        -1.185857         0.310266
 C        -0.321418        -0.134231         0.428447
 O         0.855903        -0.341479         0.744280
 C        -0.820033         1.258211         0.113685
 O        -1.601159         1.278132        -1.135657
 H        -4.116097         1.070711        -2.476934
 H        -4.568682        -0.330079        -1.695364
 H        -4.178163         1.232302        -0.809189
 H        -2.437194        -1.171902        -3.346951
 H        -0.853669        -0.466446        -2.769709
 H        -2.968821        -2.029764        -1.125310
 H        -2.241892        -0.849713         1.010493
 H        -1.128778        -2.144888         0.685735
 H        -1.296316         1.510166         1.143842
 H         0.109926         1.890692         0.055475
