19
Iteration:  3117
 C        -3.729299         0.810278        -1.796406
 C        -2.382706         0.176534        -1.434403
 C        -1.755381        -0.883294        -2.291834
 C        -2.236351        -1.252460        -0.862162
 C        -1.259674        -1.395324         0.233126
 C        -0.447922        -0.126857         0.368390
 O         0.794220        -0.202555         0.230230
 C        -1.221316         1.240725         0.430568
 O        -1.570239         1.233277        -1.027206
 H        -3.533788         1.895345        -1.948011
 H        -4.052536         0.479036        -2.775086
 H        -4.469966         0.446601        -1.058513
 H        -2.137540        -1.505918        -3.136456
 H        -0.730797        -0.575363        -2.238381
 H        -3.273826        -1.842222        -0.760011
 H        -1.716004        -1.464206         1.262638
 H        -0.445167        -2.060993         0.143323
 H        -2.104401         1.193301         1.042419
 H        -0.531513         2.139210         0.590991
