19
Iteration:  1737charge 0 multiplicity 1
 C        -3.937861         0.518909        -1.533527
 C        -2.469556         0.169626        -1.521076
 C        -1.891140        -0.678127        -2.573252
 C        -2.171570        -1.259715        -1.081096
 C        -1.398220        -1.182250         0.314461
 C        -0.323278        -0.139188         0.438861
 O         0.863590        -0.341714         0.737972
 C        -0.823628         1.246027         0.114602
 O        -1.605764         1.288557        -1.136644
 H        -4.133929         1.091616        -2.476200
 H        -4.576750        -0.334052        -1.701278
 H        -4.209666         1.242900        -0.781197
 H        -2.441589        -1.159571        -3.390218
 H        -0.847787        -0.484738        -2.785255
 H        -2.965819        -2.015203        -1.114003
 H        -2.237464        -0.852739         1.005582
 H        -1.129504        -2.127029         0.678303
 H        -1.313057         1.521284         1.141059
 H         0.115525         1.894467         0.042378
