19
Iteration:  4597
 C        -4.100433         0.747174        -1.849723
 C        -2.588407         0.305598        -1.448278
 C        -1.698254        -0.495463        -2.377497
 C        -2.194644        -1.080904        -1.006027
 C        -1.178478        -1.460563        -0.015032
 C        -0.286133        -0.297429         0.399684
 O         0.698140        -0.367181         1.122024
 C        -0.523776         0.999107        -0.369540
 O        -1.938841         1.325008        -0.702014
 H        -4.537244        -0.104642        -2.401292
 H        -4.619533         0.821545        -0.843682
 H        -4.061190         1.693920        -2.380586
 H        -2.148881        -1.010022        -3.327442
 H        -0.631751        -0.213374        -2.482993
 H        -2.946063        -1.880956        -0.914868
 H        -1.509116        -1.885117         0.919580
 H        -0.539881        -2.244827        -0.296710
 H        -0.380689         1.882587         0.357202
 H         0.243407         1.040161        -1.169880
