19
Iteration:  1829charge 0 multiplicity 1
 C        -3.842210         0.812195        -2.210245
 C        -2.507762         0.250646        -1.487347
 C        -1.973297        -1.068232        -2.270264
 C        -2.279754        -1.150821        -0.827223
 C        -1.199388        -1.292050         0.278854
 C        -0.209508        -0.186864         0.348583
 O         1.006145        -0.231660         0.434056
 C        -0.931376         1.131908         0.299119
 O        -1.854999         1.338097        -0.776287
 H        -3.549450         1.743839        -2.689703
 H        -4.006919         0.134891        -3.041492
 H        -4.563915         1.064402        -1.405606
 H        -2.803834        -1.262160        -2.928882
 H        -0.920125        -1.310765        -2.529004
 H        -3.057161        -1.812145        -0.414134
 H        -1.766649        -1.207907         1.148528
 H        -0.562639        -2.213551         0.387082
 H        -1.458875         1.327089         1.308315
 H        -0.214577         1.906968         0.215806
