19
Iteration:  1787
 C        -3.891398         0.743340        -1.945814
 C        -2.524819         0.203482        -1.382685
 C        -1.705168        -0.856545        -2.054384
 C        -2.380961        -1.212728        -0.767055
 C        -1.208759        -1.349678         0.179574
 C        -0.283026        -0.163020         0.276429
 O         0.874719        -0.344493         0.555215
 C        -0.938601         1.222952         0.064298
 O        -1.759859         1.370143        -1.088939
 H        -3.789704         1.807866        -2.253840
 H        -4.294412         0.152353        -2.852854
 H        -4.754296         0.801997        -1.095246
 H        -1.937449        -1.042019        -3.089609
 H        -0.604492        -0.733434        -1.998233
 H        -3.361959        -1.749136        -0.644554
 H        -1.480933        -1.518407         1.214850
 H        -0.639424        -2.291426        -0.156891
 H        -1.491790         1.260741         0.980002
 H        -0.099581         1.879881         0.140346
