19
Iteration:   947
 C        -3.709294         0.946067        -1.136619
 C        -2.417232         0.161297        -1.401810
 C        -2.524046        -1.191050        -2.213857
 C        -1.884871        -1.197044        -0.893710
 C        -0.337800        -1.098389        -0.811155
 C        -0.371161        -0.119008         0.357625
 O        -0.202384        -0.239192         1.561621
 C        -0.876293         1.235803        -0.184965
 O        -1.384585         1.060209        -1.556302
 H        -3.734026         1.561701        -2.001575
 H        -4.607860         0.405246        -0.943964
 H        -3.560983         1.710672        -0.338290
 H        -3.572364        -1.482727        -2.354380
 H        -1.873302        -1.346167        -3.064020
 H        -2.339392        -1.667205        -0.037384
 H         0.195207        -1.982065        -0.439314
 H         0.086902        -0.718127        -1.673017
 H        -1.616236         1.800163         0.465398
 H         0.032116         1.749234        -0.122590
