19
Iteration:  3964
 C        -3.784497         1.015328        -1.482545
 C        -2.444490         0.294789        -1.585391
 C        -1.950287        -0.851058        -2.507342
 C        -2.252330        -1.146582        -1.085566
 C        -1.023305        -1.578968        -0.103632
 C        -0.410128        -0.244168         0.515851
 O         0.776388        -0.103886         0.855165
 C        -1.297043         1.021605         0.272022
 O        -1.414655         1.164458        -1.147113
 H        -4.691442         0.456647        -1.817390
 H        -4.015285         1.254540        -0.399830
 H        -3.774019         2.114321        -1.937367
 H        -2.628159        -1.321687        -3.201949
 H        -0.889839        -0.639668        -2.739045
 H        -3.283825        -1.595129        -0.788592
 H        -1.305722        -2.127009         0.811251
 H        -0.216321        -2.038321        -0.780588
 H        -2.249186         0.912097         0.867232
 H        -0.585991         1.914128         0.526905
