19
Iteration:  3306
 C        -3.988692         0.693284        -1.659495
 C        -2.556410         0.270591        -1.424238
 C        -1.743776        -0.606580        -2.454921
 C        -2.197811        -1.161132        -1.106404
 C        -1.132020        -1.520532         0.023663
 C        -0.273901        -0.306350         0.329324
 O         0.727849        -0.223910         1.053087
 C        -0.662365         1.068222        -0.188651
 O        -1.951306         1.393936        -0.806259
 H        -4.208815         1.082228        -2.649478
 H        -4.536072        -0.312576        -1.655944
 H        -4.427227         1.185356        -0.786637
 H        -2.141482        -0.868464        -3.479873
 H        -0.693596        -0.302199        -2.458967
 H        -3.128329        -1.617168        -1.142839
 H        -1.647010        -1.759399         0.948883
 H        -0.479458        -2.375043        -0.256078
 H        -0.466708         1.911078         0.499251
 H         0.143510         1.123840        -1.022742
