19
Iteration:   410
 C        -3.938768         0.466769        -2.053164
 C        -2.497895         0.157638        -1.440538
 C        -1.929293        -0.956633        -2.285556
 C        -2.261242        -1.086361        -0.670509
 C        -1.011410        -1.208613         0.098300
 C        -0.136520        -0.063928         0.189884
 O         0.971755        -0.267273         0.690160
 C        -0.969629         1.270920         0.114110
 O        -1.989765         1.350384        -0.857666
 H        -3.902739         1.582352        -2.202083
 H        -4.097883         0.039532        -3.033303
 H        -4.691142         0.138536        -1.390306
 H        -2.566467        -1.357240        -3.039872
 H        -0.907654        -0.967544        -2.490826
 H        -3.060349        -1.802608        -0.546658
 H        -1.318315        -1.348974         1.149725
 H        -0.447842        -2.082322        -0.148930
 H        -1.365493         1.465158         1.167931
 H        -0.226971         2.084886        -0.055858
