19
Iteration:  3069
 C        -3.824312         0.798254        -1.594957
 C        -2.402707         0.209406        -1.502199
 C        -1.930407        -0.881410        -2.438840
 C        -2.211474        -1.129830        -0.945738
 C        -1.171198        -1.423443         0.218723
 C        -0.343717        -0.095649         0.378713
 O         0.830291        -0.106067         0.622912
 C        -1.314180         1.131610         0.238614
 O        -1.391255         1.129987        -1.197702
 H        -3.755662         1.446664        -2.453355
 H        -4.659633         0.125579        -1.779911
 H        -4.069519         1.275140        -0.627980
 H        -2.635144        -1.129035        -3.205966
 H        -0.832839        -0.746688        -2.636380
 H        -3.106700        -1.715802        -0.804129
 H        -1.732843        -1.464925         1.109743
 H        -0.531930        -2.353581         0.070434
 H        -2.314706         0.967824         0.737823
 H        -0.799920         1.938838         0.676763
