19
Iteration:  2917
 C        -3.590973         0.814238        -0.664903
 C        -2.401380         0.129080        -1.463952
 C        -2.487765        -0.908998        -2.517873
 C        -1.874341        -1.192301        -1.124935
 C        -0.462171        -1.250091        -0.476504
 C        -0.510933        -0.072147         0.384721
 O        -0.297965        -0.094757         1.576408
 C        -0.830906         1.261954        -0.359160
 O        -1.257645         0.935158        -1.677946
 H        -3.403975         1.840760        -0.938338
 H        -4.554548         0.486973        -1.067649
 H        -3.580992         0.879840         0.421110
 H        -3.470378        -1.526701        -2.689699
 H        -1.942223        -0.859143        -3.487658
 H        -2.456956        -1.872318        -0.580678
 H        -0.314460        -2.050093         0.160707
 H         0.312000        -1.300257        -1.260757
 H        -1.644615         1.713082         0.296330
 H         0.018560         1.885870        -0.403780
