19
Iteration:  1306
 C        -3.950704         0.837365        -1.784969
 C        -2.594254         0.176173        -1.497689
 C        -2.032800        -0.827699        -2.361177
 C        -2.236667        -1.147487        -0.874567
 C        -1.007921        -1.432142         0.062932
 C        -0.176984        -0.269127         0.313332
 O         0.776582        -0.097644         1.051305
 C        -0.789529         1.101669        -0.059364
 O        -1.751539         1.269722        -1.110153
 H        -3.888085         1.461736        -2.686946
 H        -4.718726         0.056111        -2.070696
 H        -4.394526         1.341320        -0.831851
 H        -2.664053        -1.304729        -3.076988
 H        -0.944920        -0.765347        -2.644380
 H        -3.141483        -1.768200        -0.578894
 H        -1.408345        -1.879811         0.905979
 H        -0.484890        -2.189068        -0.441833
 H        -1.156818         1.283287         1.005418
 H         0.059129         1.784911        -0.059344
