19
Iteration:   172
 C        -3.614639         0.828923        -0.722016
 C        -2.514616        -0.018304        -1.379805
 C        -2.404697        -1.101170        -2.416044
 C        -1.868056        -1.342243        -0.986871
 C        -0.465869        -1.274117        -0.378644
 C        -0.453053         0.067406         0.357708
 O        -0.131287         0.189538         1.505727
 C        -0.829880         1.277428        -0.515502
 O        -1.462889         0.899556        -1.750530
 H        -4.552580         0.846586        -1.369208
 H        -3.898840         0.531004         0.323565
 H        -3.289003         1.861933        -0.706177
 H        -3.258931        -1.570604        -2.768072
 H        -1.704549        -0.803334        -3.201389
 H        -2.553405        -2.028434        -0.397148
 H        -0.175342        -2.118471         0.258320
 H         0.321404        -1.122039        -1.171086
 H        -1.544694         1.838017         0.191765
 H         0.139259         1.912649        -0.598845
