19
Iteration:  2692
 C        -3.927060         0.858824        -1.655899
 C        -2.527245         0.178801        -1.446265
 C        -2.165632        -0.973256        -2.388250
 C        -2.187692        -1.171830        -0.896253
 C        -0.882702        -1.328929        -0.252457
 C        -0.343078        -0.114694         0.560094
 O         0.808233        -0.168553         1.049301
 C        -1.083780         1.234727         0.144256
 O        -1.489321         1.075600        -1.245305
 H        -3.668065         1.858614        -2.108396
 H        -4.541702         0.488946        -2.457231
 H        -4.469692         1.015649        -0.712202
 H        -2.994173        -1.409494        -2.929929
 H        -1.165333        -0.920913        -2.837690
 H        -3.040297        -1.753617        -0.571169
 H        -0.760436        -2.243428         0.331862
 H        -0.196715        -1.307533        -1.177896
 H        -2.023385         1.294529         0.727004
 H        -0.635222         2.286261         0.254891
