19
Iteration:  2811
 C        -3.812588         0.687999        -0.898338
 C        -2.415733         0.187323        -1.287773
 C        -2.341000        -0.848342        -2.460897
 C        -1.933874        -1.227056        -0.966596
 C        -0.463994        -1.414721        -0.530630
 C        -0.345381        -0.102924         0.285523
 O        -0.387451        -0.064782         1.505778
 C        -0.472976         1.219996        -0.457381
 O        -1.505867         1.179270        -1.447154
 H        -4.435819         0.836101        -1.821057
 H        -4.420114         0.089131        -0.248767
 H        -3.614413         1.620098        -0.332696
 H        -3.262277        -1.371141        -2.760949
 H        -1.609736        -0.695360        -3.239526
 H        -2.625575        -1.916033        -0.549778
 H        -0.388325        -2.327593         0.008686
 H         0.235167        -1.371451        -1.410218
 H        -0.582225         2.057358         0.264857
 H         0.582489         1.256295        -0.889283
