19
Iteration:  3418
 C        -3.905908         0.882315        -1.199179
 C        -2.503442         0.188853        -1.402150
 C        -2.148625        -0.819567        -2.488183
 C        -2.130682        -1.221863        -1.066085
 C        -0.716361        -1.335102        -0.396636
 C        -0.281807        -0.136308         0.339169
 O         0.299209        -0.276836         1.395633
 C        -0.945421         1.212538        -0.133976
 O        -1.414588         1.129824        -1.369328
 H        -3.890250         2.021481        -1.044381
 H        -4.599442         0.708338        -2.012902
 H        -4.481151         0.402485        -0.311748
 H        -2.921261        -1.220584        -3.093102
 H        -1.114667        -0.598115        -2.680831
 H        -2.927249        -1.949855        -0.718991
 H        -0.536934        -2.242253         0.217555
 H        -0.036254        -1.410959        -1.272748
 H        -1.724159         1.460341         0.670575
 H        -0.148588         1.956856         0.149652
