19
Iteration:  1572charge 0 multiplicity 1
 C        -3.819966         0.690217        -1.028742
 C        -2.420297         0.220175        -1.474012
 C        -2.434581        -0.876448        -2.449312
 C        -2.071600        -1.173826        -0.959177
 C        -0.616302        -1.389747        -0.375289
 C        -0.341491        -0.131612         0.328697
 O         0.023695        -0.132136         1.488907
 C        -0.739053         1.245335        -0.243708
 O        -1.289791         1.175093        -1.587688
 H        -4.374869         1.097479        -1.972713
 H        -4.353019        -0.276784        -0.753686
 H        -3.786653         1.383026        -0.153879
 H        -3.366814        -1.377367        -2.757580
 H        -1.745639        -0.801461        -3.253530
 H        -2.922805        -1.675928        -0.455164
 H        -0.544458        -2.035118         0.534177
 H         0.161312        -1.647969        -1.035446
 H        -1.426766         1.764984         0.369907
 H         0.120506         1.907004        -0.367252
