19
Iteration:  3314
 C        -4.002489         0.716866        -1.638071
 C        -2.543926         0.240911        -1.458119
 C        -1.786232        -0.576354        -2.399942
 C        -2.183377        -1.198363        -1.081935
 C        -1.096412        -1.608441         0.028146
 C        -0.273066        -0.314611         0.323277
 O         0.673557        -0.186003         1.060836
 C        -0.662013         1.096280        -0.185642
 O        -1.910434         1.425542        -0.881138
 H        -4.190073         1.436142        -2.404073
 H        -4.588747        -0.218445        -1.754676
 H        -4.272617         1.221030        -0.751882
 H        -2.151691        -0.936625        -3.365717
 H        -0.784523        -0.275658        -2.524803
 H        -3.012438        -1.912097        -1.169879
 H        -1.590383        -2.055487         0.876244
 H        -0.433410        -2.305009        -0.329052
 H        -0.538189         1.732844         0.656193
 H         0.101022         1.245333        -0.986679
