19
Iteration:   632charge 0 multiplicity 1
 C        -4.116029         0.501479        -1.603136
 C        -2.516675         0.207903        -1.501147
 C        -1.876848        -0.954398        -2.361153
 C        -2.205808        -1.124538        -0.927791
 C        -1.097320        -1.268076         0.039076
 C        -0.256065        -0.076351         0.407543
 O         0.903736        -0.226690         0.837616
 C        -1.010657         1.287332         0.073147
 O        -1.628234         1.338012        -1.204885
 H        -4.262960         1.500342        -1.898772
 H        -4.562128        -0.200609        -2.284946
 H        -4.433483         0.290957        -0.559888
 H        -2.490103        -1.454279        -3.128651
 H        -0.788353        -0.890472        -2.677446
 H        -2.981356        -1.835130        -0.576107
 H        -1.441629        -1.597433         1.052246
 H        -0.253634        -2.004701        -0.340865
 H        -1.744572         1.437870         0.860784
 H        -0.297995         2.134167         0.060849
