19
Iteration:  1868
 C        -3.799758         0.690851        -1.920619
 C        -2.475451         0.221400        -1.392278
 C        -1.704428        -0.812979        -2.159255
 C        -2.324589        -1.153833        -0.813762
 C        -1.250069        -1.312169         0.264471
 C        -0.351009        -0.156271         0.272895
 O         0.825300        -0.312122         0.368038
 C        -1.003410         1.158703         0.203536
 O        -1.696157         1.323155        -0.994486
 H        -3.780293         1.344805        -2.840265
 H        -4.540936        -0.143835        -2.144588
 H        -4.296464         1.285793        -1.129179
 H        -2.099487        -1.296893        -3.081334
 H        -0.613470        -0.798678        -1.991137
 H        -3.181088        -1.812520        -0.798543
 H        -1.808486        -1.395990         1.280515
 H        -0.753629        -2.260378         0.112182
 H        -1.704297         1.335454         1.045398
 H        -0.188790         1.971912         0.254346
