19
Iteration:  3729
 C        -3.890458         0.992058        -1.478421
 C        -2.525239         0.300690        -1.497302
 C        -2.332611        -0.856889        -2.467937
 C        -2.013915        -1.200342        -1.061218
 C        -0.643208        -1.254019        -0.557264
 C        -0.356190        -0.192618         0.464036
 O         0.433197        -0.333691         1.424334
 C        -1.042427         1.143403         0.157450
 O        -1.377074         1.041259        -1.257718
 H        -4.681735         0.249624        -1.667910
 H        -4.125327         1.428497        -0.432969
 H        -3.839210         1.864154        -2.088627
 H        -3.359058        -1.165863        -2.853372
 H        -1.532076        -0.840447        -3.278662
 H        -2.769286        -1.938347        -0.736687
 H        -0.495359        -2.260769        -0.158870
 H         0.185612        -1.028185        -1.226471
 H        -2.054912         1.216335         0.797545
 H        -0.383722         1.987584         0.437416
