19
Iteration:  3316
 C        -4.003924         0.711645        -1.632065
 C        -2.546144         0.252498        -1.467115
 C        -1.793288        -0.565480        -2.385822
 C        -2.180634        -1.217651        -1.066836
 C        -1.094484        -1.622642         0.017582
 C        -0.283032        -0.307345         0.333920
 O         0.661477        -0.183894         1.064080
 C        -0.671475         1.101872        -0.201202
 O        -1.893025         1.424625        -0.897818
 H        -4.145206         1.534146        -2.319554
 H        -4.682559        -0.193314        -1.814328
 H        -4.223926         1.246836        -0.724110
 H        -2.213384        -0.986047        -3.349426
 H        -0.768038        -0.268966        -2.538425
 H        -2.884451        -1.984088        -1.141750
 H        -1.544858        -2.102877         0.856481
 H        -0.396146        -2.328191        -0.381388
 H        -0.542520         1.690635         0.719440
 H         0.158921         1.345344        -0.976084
