19
Iteration:  2429
 C        -3.860907         0.756964        -1.506027
 C        -2.486783         0.208046        -1.440499
 C        -1.841564        -0.781971        -2.379149
 C        -2.130012        -1.272481        -1.040017
 C        -1.132310        -1.450851         0.205458
 C        -0.419334        -0.174914         0.405770
 O         0.749688        -0.156492         0.746347
 C        -1.060972         1.170257         0.057438
 O        -1.580798         1.285364        -1.253149
 H        -3.962528         1.176412        -2.511557
 H        -4.673364         0.012703        -1.279775
 H        -3.966537         1.630909        -0.824284
 H        -2.482287        -1.358796        -3.112708
 H        -0.880184        -0.388704        -2.780387
 H        -2.991647        -1.932350        -1.014075
 H        -1.894702        -1.668633         0.993004
 H        -0.223525        -2.163839         0.051017
 H        -1.811295         1.210508         0.866332
 H        -0.435716         1.993611         0.232092
