19
Iteration:  4903charge 0 multiplicity 1
 C        -3.845423         0.693448        -1.956039
 C        -2.510173         0.305611        -1.401592
 C        -1.709742        -0.734899        -2.317010
 C        -2.259567        -1.091231        -0.916915
 C        -1.221065        -1.369071         0.119262
 C        -0.291391        -0.233356         0.288243
 O         0.804933        -0.524956         0.792126
 C        -0.692946         1.221837        -0.069127
 O        -2.027843         1.402963        -0.703593
 H        -4.095343         0.008427        -2.759085
 H        -4.760186         0.685082        -1.231300
 H        -3.784868         1.724684        -2.271057
 H        -2.208608        -1.016180        -3.261312
 H        -0.702849        -0.811292        -2.505034
 H        -3.015024        -1.842288        -1.112468
 H        -1.832737        -1.532700         1.054434
 H        -0.672952        -2.248217        -0.254789
 H        -0.843067         1.756484         0.878663
 H         0.027829         1.750747        -0.741252
