19
Iteration:  1137charge 0 multiplicity 1
 C        -3.688947         0.698453        -2.172384
 C        -2.510255         0.207288        -1.440760
 C        -1.720161        -0.941634        -2.045482
 C        -2.446889        -1.114679        -0.641541
 C        -1.187261        -1.400227         0.360522
 C        -0.229178        -0.115129         0.290234
 O         0.989246        -0.292276         0.146499
 C        -1.160538         1.172315         0.316743
 O        -1.834595         1.432049        -0.922416
 H        -3.222690         1.410872        -2.967524
 H        -4.265728        -0.157934        -2.636810
 H        -4.466358         1.228656        -1.633396
 H        -2.238630        -1.101089        -2.982951
 H        -0.608141        -1.149080        -1.908220
 H        -3.339173        -1.701970        -0.446865
 H        -1.593992        -1.555564         1.326138
 H        -0.508089        -2.207793        -0.017004
 H        -1.970830         0.810883         1.027995
 H        -0.746928         2.150055         0.788314
