19
Iteration:  3688
 C        -3.739658         0.943338        -1.243719
 C        -2.425671         0.183391        -1.495923
 C        -2.275700        -0.872341        -2.521662
 C        -2.058127        -1.128772        -1.006854
 C        -0.628966        -1.249512        -0.638873
 C        -0.341768        -0.205443         0.394431
 O         0.181261        -0.333146         1.479948
 C        -1.028945         1.115051         0.051286
 O        -1.413114         1.179895        -1.319308
 H        -4.417630         0.270475        -0.694152
 H        -3.556192         1.754410        -0.605321
 H        -4.228163         1.316962        -2.164555
 H        -3.256284        -1.221209        -2.838763
 H        -1.434798        -0.940694        -3.251433
 H        -2.578567        -1.727910        -0.261902
 H        -0.341736        -2.295063        -0.383489
 H        -0.019715        -1.139598        -1.569254
 H        -1.855141         1.095303         0.699829
 H        -0.432648         1.937173         0.201458
