19
Iteration:  1856charge 0 multiplicity 1
 C        -3.748756         0.688591        -1.944359
 C        -2.473320         0.161885        -1.462486
 C        -1.777121        -0.938497        -2.216218
 C        -2.376395        -1.141790        -0.810747
 C        -1.345239        -1.227860         0.210255
 C        -0.271225        -0.111107         0.291675
 O         0.972824        -0.347300         0.390621
 C        -1.004679         1.215009         0.289997
 O        -1.797876         1.319755        -0.927798
 H        -3.360811         1.382546        -2.751121
 H        -4.404185        -0.147210        -2.423383
 H        -4.242790         1.317481        -1.151767
 H        -2.257102        -1.211437        -3.198459
 H        -0.712619        -0.768273        -2.382838
 H        -3.272953        -1.752318        -0.577348
 H        -1.784537        -1.277175         1.284156
 H        -0.678969        -2.078117         0.093831
 H        -1.596126         1.073870         1.196499
 H        -0.335077         2.177181         0.355143
