19
Iteration:  4762
 C        -3.926941         0.872419        -1.740209
 C        -2.500485         0.242916        -1.409881
 C        -1.874057        -0.670974        -2.457914
 C        -2.202078        -1.199421        -1.037777
 C        -1.010485        -1.533973        -0.098256
 C        -0.379928        -0.268085         0.440196
 O         0.633415        -0.329166         1.138742
 C        -0.678839         1.088344        -0.276057
 O        -1.873800         1.387730        -0.793178
 H        -4.638038         0.114555        -2.009271
 H        -4.385205         1.336907        -0.767188
 H        -3.810519         1.656748        -2.390657
 H        -2.468000        -0.939036        -3.269793
 H        -0.810217        -0.378513        -2.740366
 H        -3.019205        -1.977704        -0.945110
 H        -1.516022        -2.037465         0.741215
 H        -0.124547        -2.016396        -0.505855
 H        -0.509163         1.904286         0.449456
 H         0.176999         1.056734        -0.952344
