19
Iteration:   806charge 0 multiplicity 1
 C        -3.966134         0.500821        -0.968793
 C        -2.507050         0.144512        -1.396014
 C        -2.099197        -0.824478        -2.434090
 C        -2.060033        -1.157560        -0.915292
 C        -0.631893        -1.301325        -0.444824
 C        -0.350838        -0.119828         0.335770
 O        -0.059463         0.033663         1.524292
 C        -0.472734         1.147859        -0.487351
 O        -1.585143         1.198288        -1.440138
 H        -4.331842         1.494953        -1.287738
 H        -4.570572        -0.294955        -1.471265
 H        -4.113165         0.289147         0.180632
 H        -2.867497        -1.231504        -3.111475
 H        -1.161033        -0.481155        -2.847209
 H        -2.844496        -1.896686        -0.694614
 H        -0.421777        -2.249225         0.081501
 H        -0.078316        -1.363496        -1.381972
 H        -0.569882         2.067935         0.154898
 H         0.492479         1.315723        -1.072256
