19
Iteration:  4122
 C        -4.030636         0.701280        -1.795259
 C        -2.613547         0.286695        -1.465819
 C        -1.879015        -0.526314        -2.543565
 C        -2.166580        -1.113702        -1.065984
 C        -1.098884        -1.408123        -0.023030
 C        -0.220850        -0.244883         0.468783
 O         0.739680        -0.382591         1.272522
 C        -0.562877         1.042241        -0.337425
 O        -1.918539         1.324353        -0.752745
 H        -4.572919        -0.098343        -2.377789
 H        -4.676416         0.779958        -0.834464
 H        -4.243934         1.593433        -2.352001
 H        -2.527216        -1.032288        -3.301180
 H        -0.848724        -0.371066        -2.872480
 H        -3.063390        -1.767294        -1.128304
 H        -1.673260        -1.796822         0.903115
 H        -0.427545        -2.282777        -0.220773
 H        -0.283681         1.958668         0.360611
 H         0.231490         1.136377        -1.158483
