19
Iteration:  3294
 C        -4.018347         0.549249        -1.712680
 C        -2.534517         0.304538        -1.450233
 C        -1.722313        -0.564438        -2.443672
 C        -2.199886        -1.104794        -1.090213
 C        -1.203118        -1.367740        -0.025459
 C        -0.280562        -0.213295         0.402256
 O         0.769889        -0.345678         1.024006
 C        -0.645777         1.094146        -0.286169
 O        -1.946577         1.317581        -0.667205
 H        -4.084858         1.022511        -2.671230
 H        -4.712840        -0.339934        -1.640844
 H        -4.338271         1.376897        -1.117064
 H        -2.260565        -0.943903        -3.343665
 H        -0.659942        -0.470641        -2.590220
 H        -2.904691        -1.864662        -1.023417
 H        -1.768333        -1.475591         0.898135
 H        -0.698218        -2.304997        -0.114117
 H        -0.420219         1.832809         0.483139
 H         0.110762         1.279934        -1.135936
