19
Iteration:  1210charge 0 multiplicity 1
 C        -3.739953         0.677284        -1.963413
 C        -2.344908         0.254734        -1.441079
 C        -1.494640        -0.868904        -2.083224
 C        -2.181323        -1.127379        -0.737812
 C        -1.364046        -1.303979         0.505988
 C        -0.466188        -0.173670         0.293680
 O         0.677662        -0.351247        -0.085059
 C        -1.177916         1.151450         0.360436
 O        -1.663426         1.372523        -0.961743
 H        -3.648831         1.389765        -2.759058
 H        -4.382189        -0.106901        -2.353849
 H        -4.339544         1.105304        -1.174873
 H        -1.974396        -1.321994        -2.934727
 H        -0.372686        -0.732228        -2.068867
 H        -3.057860        -1.850796        -0.768324
 H        -1.885899        -1.150248         1.547105
 H        -0.726622        -2.207858         0.428847
 H        -1.962164         1.266435         1.121327
 H        -0.457942         1.987387         0.627422
