19
Iteration:   664charge 0 multiplicity 1
 C        -3.918551         0.766754        -1.400011
 C        -2.551611         0.107923        -1.436977
 C        -2.008862        -0.830120        -2.498228
 C        -2.127220        -1.292302        -1.003988
 C        -0.984739        -1.361395         0.050799
 C        -0.306755        -0.085376         0.375602
 O         0.748509         0.088247         0.942288
 C        -1.112313         1.134849         0.017442
 O        -1.521586         1.084984        -1.296056
 H        -3.772442         1.716765        -1.882822
 H        -4.749740         0.223722        -1.861145
 H        -4.194070         0.891468        -0.297485
 H        -2.600752        -1.424150        -3.216162
 H        -0.995559        -0.464984        -2.863234
 H        -2.875395        -2.095295        -0.856054
 H        -1.444959        -1.840237         0.985952
 H        -0.278226        -2.206675        -0.346214
 H        -1.953703         1.181144         0.728049
 H        -0.446635         2.001321         0.162959
