19
Iteration:  3862
 C        -3.886675         0.697762        -1.517130
 C        -2.486899         0.283870        -1.448253
 C        -2.014013        -0.656908        -2.488501
 C        -2.211568        -1.143978        -1.120155
 C        -1.025360        -1.460610        -0.138145
 C        -0.301292        -0.239609         0.394152
 O         0.661364        -0.392364         1.132307
 C        -0.928901         1.156127         0.121382
 O        -1.570035         1.377630        -1.208823
 H        -4.672556        -0.119660        -1.529161
 H        -4.141978         1.406341        -0.715368
 H        -3.995941         1.238725        -2.534849
 H        -2.727358        -0.770557        -3.355683
 H        -1.010629        -0.485883        -2.762594
 H        -3.023244        -1.815829        -0.863808
 H        -1.352431        -1.941286         0.793356
 H        -0.185645        -1.951442        -0.560568
 H        -1.718185         1.277621         0.852712
 H        -0.182272         1.789288         0.419083
