19
Iteration:  1317charge 0 multiplicity 1
 C        -4.041251         0.760467        -1.754783
 C        -2.611224         0.270975        -1.409445
 C        -2.033218        -0.853452        -2.347680
 C        -2.250929        -1.127546        -0.852697
 C        -0.969768        -1.471670        -0.055781
 C        -0.140330        -0.203610         0.263525
 O         0.678198        -0.139671         1.187358
 C        -0.747809         1.072609        -0.101534
 O        -1.639328         1.283787        -1.166580
 H        -3.972012         1.438053        -2.622520
 H        -4.851640        -0.005608        -1.896975
 H        -4.339803         1.525398        -0.931220
 H        -2.704147        -1.359381        -3.021279
 H        -1.054421        -0.587838        -2.816587
 H        -3.086151        -1.863652        -0.630369
 H        -1.157671        -1.815426         0.922736
 H        -0.350473        -2.210637        -0.486006
 H        -1.341900         1.400017         0.782356
 H        -0.036429         1.835638        -0.365649
