19
Iteration:  4457
 C        -3.761833         0.623141        -2.039509
 C        -2.446355         0.333392        -1.435597
 C        -1.564591        -0.685213        -2.215701
 C        -2.237246        -1.131325        -1.051055
 C        -1.408222        -1.321250         0.264875
 C        -0.315985        -0.248257         0.390039
 O         0.861206        -0.523361         0.484315
 C        -0.727193         1.229726        -0.068783
 O        -2.151137         1.378691        -0.488943
 H        -4.253579        -0.152055        -2.634126
 H        -4.456455         0.923159        -1.172922
 H        -3.810622         1.455443        -2.664716
 H        -1.813290        -0.829181        -3.272146
 H        -0.411934        -0.641194        -2.153768
 H        -3.104120        -1.794183        -1.210372
 H        -2.048430        -1.235476         1.162908
 H        -1.075255        -2.433598         0.466446
 H        -0.590198         2.085436         0.532745
 H        -0.080891         1.362490        -0.939647
