19
Iteration:   738charge 0 multiplicity 1
 C        -3.983903         0.722147        -1.468536
 C        -2.598680         0.182203        -1.445747
 C        -2.234326        -1.027408        -2.362515
 C        -2.168782        -1.175600        -0.782637
 C        -0.604372        -1.275691        -0.486084
 C        -0.264424        -0.076977         0.422251
 O         0.488379        -0.079129         1.361635
 C        -0.974502         1.228140        -0.047106
 O        -1.449174         1.113795        -1.391668
 H        -4.238668         1.024661        -2.507655
 H        -4.743890        -0.014114        -1.098185
 H        -4.035379         1.699658        -0.843354
 H        -3.081351        -1.481151        -2.930606
 H        -1.309039        -0.827305        -3.044536
 H        -2.840597        -1.882556        -0.274035
 H        -0.295233        -2.240942        -0.021939
 H        -0.029391        -1.242957        -1.363015
 H        -1.712064         1.521870         0.773954
 H        -0.203715         1.999081         0.001537
