19
Iteration:   698
 C        -3.758923         0.757259        -1.351126
 C        -2.437829         0.089563        -1.592922
 C        -2.323409        -1.057597        -2.573972
 C        -2.125533        -1.266618        -1.035635
 C        -0.831184        -1.318391        -0.149449
 C        -0.340418         0.001718         0.457899
 O         0.680614         0.051980         1.097789
 C        -1.240951         1.209421         0.141820
 O        -1.380044         1.137276        -1.291465
 H        -4.136461         1.460147        -2.067306
 H        -4.575501         0.093907        -1.095335
 H        -3.628062         1.459849        -0.480564
 H        -3.232036        -1.507098        -2.929817
 H        -1.429127        -1.156390        -3.216756
 H        -3.012294        -1.850375        -0.714495
 H        -1.021741        -2.036434         0.740882
 H         0.035661        -1.844409        -0.809812
 H        -2.208465         1.242014         0.650332
 H        -0.698198         2.165128         0.414343
