19
Iteration:  3116charge 0 multiplicity 1
 C        -3.735141         0.810478        -1.786137
 C        -2.385484         0.177506        -1.447619
 C        -1.749641        -0.888597        -2.299846
 C        -2.236189        -1.253190        -0.860081
 C        -1.262250        -1.397465         0.232273
 C        -0.450203        -0.125024         0.368499
 O         0.793449        -0.193816         0.233402
 C        -1.219576         1.240060         0.436602
 O        -1.563774         1.226044        -1.029626
 H        -3.516776         1.886651        -1.944211
 H        -4.026029         0.483093        -2.743892
 H        -4.456497         0.461277        -1.031624
 H        -2.158384        -1.496623        -3.156039
 H        -0.717192        -0.591779        -2.256743
 H        -3.307838        -1.808719        -0.753203
 H        -1.724098        -1.464519         1.234455
 H        -0.451888        -2.091142         0.147939
 H        -2.099599         1.226750         1.072203
 H        -0.558063         2.145403         0.584844
