19
Iteration:  4670charge 0 multiplicity 1
 C        -4.070714         0.726718        -1.495965
 C        -2.595331         0.225488        -1.527578
 C        -1.656210        -0.461701        -2.454784
 C        -2.221580        -1.160235        -1.226119
 C        -1.219067        -1.450374        -0.021537
 C        -0.293564        -0.232445         0.386305
 O         0.592135        -0.315058         1.256127
 C        -0.527785         1.003441        -0.447307
 O        -1.843721         1.295594        -0.780913
 H        -4.871063         0.062330        -1.915656
 H        -4.164968         0.989515        -0.512036
 H        -3.932770         1.709848        -2.092999
 H        -1.928114        -0.868123        -3.493400
 H        -0.587337        -0.303023        -2.392211
 H        -2.840701        -1.998275        -1.220264
 H        -1.796945        -1.672675         0.962317
 H        -0.489988        -2.388104        -0.049371
 H        -0.143103         1.866998         0.142613
 H        -0.034822         1.134248        -1.409210
