19
Iteration:  4016charge 0 multiplicity 1
 C        -3.995610         0.678554        -1.600466
 C        -2.509438         0.286063        -1.528582
 C        -1.998812        -0.632159        -2.563411
 C        -2.173185        -1.124894        -1.124499
 C        -1.136672        -1.387530        -0.001694
 C        -0.298464        -0.202582         0.462432
 O         0.755259        -0.401952         0.989939
 C        -0.871955         1.229077         0.240172
 O        -1.524201         1.231868        -1.117603
 H        -4.718285        -0.152931        -1.649423
 H        -4.345892         1.290428        -0.804263
 H        -4.250818         1.395684        -2.489739
 H        -2.653030        -0.998151        -3.332413
 H        -0.921754        -0.399331        -2.779577
 H        -3.028705        -1.951108        -1.112981
 H        -1.727572        -1.776178         0.877849
 H        -0.368621        -2.123302        -0.244735
 H        -1.553696         1.291916         1.079979
 H        -0.117574         2.015341         0.049857
