19
Iteration:  3761
 C        -3.877692         0.782405        -1.359806
 C        -2.428615         0.219702        -1.545822
 C        -2.142815        -0.738138        -2.581640
 C        -2.234805        -1.141525        -1.045403
 C        -0.927504        -1.392144        -0.384775
 C        -0.300454        -0.215498         0.493038
 O         0.508743        -0.311814         1.369005
 C        -0.924940         1.230498         0.070782
 O        -1.461794         1.210529        -1.282618
 H        -4.581464         0.270824        -2.055331
 H        -4.169734         0.547376        -0.260435
 H        -3.935921         1.828969        -1.593677
 H        -2.989025        -0.916689        -3.277387
 H        -1.080888        -0.736229        -2.975135
 H        -3.058223        -1.815386        -0.766054
 H        -0.740847        -2.362355         0.058037
 H        -0.108760        -1.432523        -1.087454
 H        -1.790827         1.400362         0.806786
 H        -0.063189         1.922199         0.178473
