19
Iteration:   853
 C        -3.614890         0.493921        -0.707986
 C        -2.446046         0.061653        -1.439161
 C        -2.403537        -0.829475        -2.628186
 C        -1.863035        -1.269978        -1.297105
 C        -0.569488        -1.363732        -0.338260
 C        -0.450561         0.009629         0.370393
 O        -0.378728         0.100670         1.564395
 C        -0.430746         1.220419        -0.492077
 O        -1.556442         1.175743        -1.383081
 H        -3.683518         1.569074        -1.040909
 H        -4.553278        -0.092025        -0.794135
 H        -3.337243         0.495905         0.370603
 H        -3.226749        -1.450650        -2.732737
 H        -1.886052        -0.441805        -3.473356
 H        -2.671855        -1.845558        -0.795602
 H        -0.754313        -2.181818         0.350555
 H         0.414394        -1.686965        -0.967507
 H        -0.315724         2.182295        -0.006360
 H         0.471565         1.201624        -1.259454
