19
Iteration:  1284
 C        -3.856667         0.764812        -1.816833
 C        -2.507322         0.172497        -1.442081
 C        -1.898121        -0.933683        -2.361320
 C        -2.327000        -1.219181        -0.940435
 C        -1.150057        -1.393198         0.125437
 C        -0.244943        -0.131975         0.418939
 O         0.916700        -0.240445         0.764239
 C        -0.938470         1.251129         0.107827
 O        -1.769805         1.312153        -1.044286
 H        -3.692214         1.620424        -2.480003
 H        -4.634697         0.215335        -2.408656
 H        -4.400134         1.100152        -0.823777
 H        -2.553271        -1.342027        -3.092742
 H        -0.853074        -0.822329        -2.748919
 H        -3.243827        -1.880759        -0.800089
 H        -1.690609        -1.634460         0.985961
 H        -0.530689        -2.212724        -0.094516
 H        -1.360889         1.741248         1.070770
 H        -0.124105         1.974770        -0.068228
