19
Iteration:  1124charge 0 multiplicity 1
 C        -3.789265         0.639944        -2.135898
 C        -2.466868         0.267147        -1.359750
 C        -1.782575        -0.847868        -2.020077
 C        -2.339372        -1.142060        -0.655554
 C        -1.159834        -1.352744         0.220644
 C        -0.269349        -0.156120         0.285693
 O         0.921956        -0.353395         0.287086
 C        -1.169206         1.208679         0.281640
 O        -1.751391         1.423018        -1.013409
 H        -3.654761         1.436586        -2.876617
 H        -4.203070        -0.204641        -2.689628
 H        -4.437056         0.998215        -1.383099
 H        -2.117554        -1.466333        -2.866905
 H        -0.702759        -0.802815        -2.049236
 H        -3.254817        -1.789236        -0.580900
 H        -1.323755        -1.546662         1.323377
 H        -0.595614        -2.251340        -0.072988
 H        -1.959156         1.011937         1.057219
 H        -0.568534         2.137051         0.504599
