19
Iteration:   451charge 0 multiplicity 1
 C        -3.925024         0.518055        -1.903949
 C        -2.549398         0.135400        -1.466384
 C        -1.543092        -0.762479        -2.188198
 C        -2.226649        -1.211787        -0.887901
 C        -1.283101        -1.336304         0.344027
 C        -0.342367        -0.126979         0.315463
 O         0.889704        -0.142614         0.359883
 C        -0.820286         1.228933         0.035070
 O        -1.988216         1.310769        -0.793077
 H        -3.876796         1.298424        -2.692598
 H        -4.525937        -0.265100        -2.402067
 H        -4.537119         0.764263        -1.032567
 H        -1.935560        -1.344225        -3.040316
 H        -0.507550        -0.502049        -2.211325
 H        -3.015931        -2.027065        -0.814003
 H        -1.826951        -1.230636         1.365613
 H        -0.760790        -2.254126         0.403805
 H        -0.956665         1.821058         0.945806
 H        -0.017198         1.749404        -0.417572
