19
Iteration:  3662
 C        -3.926512         0.739397        -1.132400
 C        -2.483655         0.270430        -1.489503
 C        -2.319142        -0.772930        -2.575671
 C        -2.077142        -1.154981        -1.125648
 C        -0.617427        -1.256617        -0.509818
 C        -0.447773        -0.185906         0.496724
 O         0.149842        -0.421191         1.514207
 C        -0.817452         1.302457        -0.025774
 O        -1.258187         1.131775        -1.453808
 H        -4.350221        -0.159035        -0.678651
 H        -3.945682         1.530319        -0.277151
 H        -4.496083         1.164755        -1.931874
 H        -3.210079        -1.070199        -3.215109
 H        -1.371142        -0.631093        -3.085272
 H        -2.613464        -1.787657        -0.407747
 H        -0.415076        -2.260186        -0.144926
 H         0.154407        -1.147813        -1.257395
 H        -1.672379         1.725567         0.621960
 H         0.105618         1.986041        -0.082632
