19
Iteration:  2819charge 0 multiplicity 1
 C        -3.791046         0.698302        -0.872093
 C        -2.465372         0.163259        -1.299211
 C        -2.323276        -0.815540        -2.304161
 C        -1.891060        -1.218871        -1.031804
 C        -0.430424        -1.412744        -0.582346
 C        -0.362694        -0.104346         0.280947
 O        -0.487516        -0.068651         1.475557
 C        -0.416341         1.184501        -0.476418
 O        -1.473603         1.206502        -1.456297
 H        -4.250498         0.800789        -1.864076
 H        -4.348209        -0.085140        -0.283888
 H        -3.883570         1.636941        -0.303123
 H        -3.232767        -1.500073        -2.505724
 H        -1.869820        -0.659012        -3.334272
 H        -2.615295        -1.826717        -0.462935
 H        -0.280403        -2.176640         0.117087
 H         0.300944        -1.520871        -1.362568
 H        -0.602550         1.997317         0.314931
 H         0.482422         1.231901        -1.038796
