19
Iteration:  4324charge 0 multiplicity 1
 C        -4.108888         0.680476        -1.914493
 C        -2.550569         0.305375        -1.545053
 C        -1.673511        -0.546348        -2.394615
 C        -2.190251        -1.007351        -0.968087
 C        -1.276295        -1.363179         0.291102
 C        -0.218855        -0.258410         0.355661
 O         0.886915        -0.470837         0.820100
 C        -0.750017         1.021251        -0.015663
 O        -1.890714         1.320026        -0.816923
 H        -4.425448        -0.317651        -2.215148
 H        -4.641479         1.143534        -1.150196
 H        -3.926062         1.272178        -2.778755
 H        -2.165468        -1.066082        -3.303755
 H        -0.659858        -0.215926        -2.581555
 H        -2.813814        -1.823490        -1.183161
 H        -1.980989        -1.279359         1.092218
 H        -0.934954        -2.351613         0.025936
 H        -1.013472         1.477519         0.947129
 H         0.032679         1.622681        -0.440170
