19
Iteration:  3301
 C        -3.995900         0.617642        -1.671487
 C        -2.553732         0.320491        -1.424320
 C        -1.722225        -0.598988        -2.476598
 C        -2.189269        -1.137127        -1.099768
 C        -1.167235        -1.457427        -0.016672
 C        -0.278523        -0.263076         0.378105
 O         0.751942        -0.274039         1.039434
 C        -0.672034         1.068151        -0.242090
 O        -1.949607         1.353205        -0.746205
 H        -4.141895         1.010681        -2.695148
 H        -4.616118        -0.255113        -1.676967
 H        -4.433711         1.303255        -0.923155
 H        -2.186624        -0.888833        -3.380261
 H        -0.657227        -0.370979        -2.465149
 H        -3.163332        -1.761459        -1.023081
 H        -1.654954        -1.569710         0.989764
 H        -0.602130        -2.379146        -0.178410
 H        -0.383471         1.864947         0.437998
 H         0.130194         1.219720        -0.967306
