19
Iteration:   818
 C        -3.923635         0.427378        -0.850758
 C        -2.542466         0.191177        -1.383227
 C        -2.140751        -0.793077        -2.498848
 C        -2.000795        -1.193339        -1.025549
 C        -0.632959        -1.469835        -0.412381
 C        -0.343979        -0.013550         0.337113
 O        -0.173424         0.034566         1.541811
 C        -0.431669         1.223780        -0.519648
 O        -1.549033         1.216455        -1.489788
 H        -4.259869         1.486128        -0.958919
 H        -4.708330        -0.184849        -1.356477
 H        -3.945962         0.254868         0.298088
 H        -2.811154        -1.241033        -3.222416
 H        -1.295871        -0.419055        -2.963323
 H        -2.782574        -1.760478        -0.487064
 H        -0.614471        -2.242426         0.368383
 H         0.238559        -1.571783        -1.119932
 H        -0.452037         2.116918         0.139449
 H         0.547905         1.117879        -1.128385
