19
Iteration:  1406
 C        -3.630827         0.991563        -0.975939
 C        -2.444207         0.118812        -1.361627
 C        -2.474862        -0.859668        -2.404149
 C        -1.939737        -1.252130        -1.036002
 C        -0.502020        -1.321723        -0.504001
 C        -0.370798        -0.121111         0.369198
 O        -0.054880        -0.088410         1.531006
 C        -0.952391         1.165916        -0.298761
 O        -1.356133         0.933204        -1.622966
 H        -3.577882         2.046120        -1.427895
 H        -4.618949         0.567658        -1.353157
 H        -3.670506         1.168208         0.136718
 H        -3.390739        -1.373803        -2.826511
 H        -1.780235        -0.662211        -3.230268
 H        -2.580926        -1.949098        -0.504665
 H        -0.219304        -2.015831         0.221014
 H         0.303310        -1.300448        -1.184246
 H        -1.719044         1.359158         0.448555
 H        -0.215213         2.004379        -0.116937
