19
Iteration:  3340charge 0 multiplicity 1
 C        -3.997028         0.766074        -1.529683
 C        -2.559322         0.182269        -1.388647
 C        -1.879005        -0.695168        -2.421270
 C        -2.165779        -1.187402        -1.065582
 C        -0.964314        -1.423016        -0.127542
 C        -0.304136        -0.187419         0.343124
 O         0.577654        -0.319614         1.169140
 C        -0.691655         1.152103        -0.174944
 O        -1.820141         1.317052        -1.050266
 H        -3.960823         1.843511        -1.856368
 H        -4.470999         0.090422        -2.270233
 H        -4.604660         0.873852        -0.575907
 H        -2.385090        -1.093215        -3.318023
 H        -0.817467        -0.361548        -2.620954
 H        -3.008840        -1.867523        -0.889532
 H        -1.268764        -1.976389         0.768482
 H        -0.132751        -2.048192        -0.575043
 H        -0.780901         1.823602         0.759405
 H         0.221814         1.497712        -0.779573
