19
Iteration:   138charge 0 multiplicity 1
 C        -3.660827         0.407308        -0.559615
 C        -2.471209         0.046053        -1.465109
 C        -2.591933        -1.067748        -2.491113
 C        -2.005466        -1.272321        -1.081712
 C        -0.610307        -1.243281        -0.419087
 C        -0.449549         0.177605         0.401752
 O        -0.243042         0.316523         1.575469
 C        -0.486791         1.325225        -0.514811
 O        -1.227279         0.906943        -1.785127
 H        -4.668840         0.188835        -1.063670
 H        -3.657968        -0.223729         0.393873
 H        -3.612585         1.440212        -0.332038
 H        -3.611050        -1.320092        -2.834306
 H        -1.782662        -0.893838        -3.187322
 H        -2.814576        -1.734507        -0.298099
 H        -0.631232        -2.100269         0.332532
 H         0.313182        -1.390005        -1.047755
 H        -1.114873         2.232327        -0.146834
 H         0.590680         1.790974        -0.757695
