19
Iteration:  4276
 C        -3.879300         0.745618        -1.745590
 C        -2.448251         0.224912        -1.413842
 C        -1.728533        -0.755055        -2.393959
 C        -2.273264        -1.172404        -1.055579
 C        -1.201340        -1.397850         0.009843
 C        -0.324657        -0.222784         0.225306
 O         0.662474        -0.384895         0.931224
 C        -0.688774         1.218454        -0.013779
 O        -1.883939         1.342910        -0.835252
 H        -4.385871        -0.087384        -2.200597
 H        -4.094770         0.922910        -0.673536
 H        -3.746538         1.698008        -2.341460
 H        -2.250030        -1.060487        -3.234389
 H        -0.633887        -0.726125        -2.572565
 H        -3.298009        -1.674529        -0.860240
 H        -1.699137        -1.579100         1.012328
 H        -0.479254        -2.101424        -0.384062
 H        -1.085025         1.622653         0.976418
 H        -0.073657         1.994863        -0.441368
