19
Iteration:  2428
 C        -3.852862         0.758026        -1.500376
 C        -2.485246         0.197189        -1.451954
 C        -1.854936        -0.784330        -2.395032
 C        -2.133390        -1.275812        -1.045774
 C        -1.134260        -1.439919         0.206070
 C        -0.419385        -0.174073         0.399731
 O         0.756376        -0.157556         0.759487
 C        -1.057775         1.170062         0.062733
 O        -1.585757         1.286126        -1.249585
 H        -3.950262         1.167240        -2.483652
 H        -4.646945         0.022655        -1.270970
 H        -3.983302         1.620266        -0.825705
 H        -2.498706        -1.337301        -3.099361
 H        -0.875312        -0.419504        -2.788074
 H        -2.991295        -1.916411        -1.021386
 H        -1.868521        -1.657701         1.000880
 H        -0.207030        -2.136507         0.077250
 H        -1.818134         1.229224         0.862430
 H        -0.438576         1.991229         0.231681
