19
Iteration:  1315charge 0 multiplicity 1
 C        -4.029911         0.768329        -1.764715
 C        -2.609461         0.260113        -1.417295
 C        -2.027575        -0.848117        -2.351593
 C        -2.258623        -1.129359        -0.852198
 C        -0.970178        -1.456763        -0.035276
 C        -0.139200        -0.218506         0.261293
 O         0.687239        -0.127589         1.165651
 C        -0.748162         1.064984        -0.091488
 O        -1.654012         1.282570        -1.153611
 H        -4.003287         1.433864        -2.630908
 H        -4.854913         0.061619        -1.951029
 H        -4.331805         1.501573        -0.921793
 H        -2.661143        -1.358404        -3.026480
 H        -1.072187        -0.614767        -2.833963
 H        -3.067499        -1.844250        -0.605768
 H        -1.227916        -1.879548         0.948248
 H        -0.343310        -2.249366        -0.473138
 H        -1.300680         1.397661         0.794406
 H        -0.078418         1.820201        -0.311268
