19
Iteration:  3148
 C        -3.873446         0.713251        -2.093907
 C        -2.436980         0.266762        -1.448633
 C        -1.717229        -0.782976        -2.178598
 C        -2.267761        -1.077436        -0.787511
 C        -1.272090        -1.447202         0.356997
 C        -0.270116        -0.269664         0.331843
 O         0.942648        -0.239705         0.227436
 C        -1.094213         1.105024         0.387648
 O        -1.767148         1.354377        -0.931116
 H        -3.992946         1.831700        -2.136131
 H        -4.007811         0.290662        -3.038094
 H        -4.821751         0.432661        -1.592271
 H        -2.008403        -1.385878        -3.084283
 H        -0.658036        -0.552448        -2.217573
 H        -3.284379        -1.676866        -0.669904
 H        -1.716813        -1.398140         1.346738
 H        -0.713249        -2.384647         0.283721
 H        -1.886247         1.034695         1.141145
 H        -0.337645         1.917405         0.555263
