19
Iteration:  4756charge 0 multiplicity 1
 C        -3.931384         0.869219        -1.717166
 C        -2.561871         0.296096        -1.433821
 C        -1.836112        -0.700414        -2.464765
 C        -2.209065        -1.228895        -1.021899
 C        -1.033225        -1.437663        -0.115312
 C        -0.339537        -0.253089         0.415059
 O         0.607732        -0.359326         1.148216
 C        -0.627755         1.108937        -0.222783
 O        -1.875444         1.313867        -0.805370
 H        -4.612797         0.029292        -2.035689
 H        -4.436358         1.293683        -0.878620
 H        -3.867851         1.843760        -2.381180
 H        -2.455854        -1.002323        -3.372745
 H        -0.828305        -0.553480        -2.742806
 H        -3.066733        -1.821406        -0.783081
 H        -1.391191        -2.059418         0.718149
 H        -0.094507        -1.839086        -0.604915
 H        -0.482012         1.853672         0.554455
 H         0.161915         1.161366        -1.049245
