19
Iteration:  4897charge 0 multiplicity 1
 C        -3.890413         0.721731        -1.924393
 C        -2.546005         0.314179        -1.448647
 C        -1.687326        -0.737063        -2.331162
 C        -2.277158        -1.117609        -0.945061
 C        -1.194096        -1.336143         0.157005
 C        -0.265312        -0.276523         0.304888
 O         0.817789        -0.532167         0.817032
 C        -0.750441         1.198221        -0.086925
 O        -1.996789         1.407413        -0.726024
 H        -4.214523         0.129602        -2.811409
 H        -4.697826         0.670380        -1.245176
 H        -3.910558         1.845585        -2.148381
 H        -2.161868        -1.064578        -3.249375
 H        -0.534038        -0.473477        -2.472070
 H        -3.014555        -1.930064        -1.107190
 H        -1.747951        -1.622595         1.065170
 H        -0.579776        -2.229364        -0.017438
 H        -0.782970         1.904836         0.762913
 H         0.017841         1.592645        -0.767864
