19
Iteration:  3429charge 0 multiplicity 1
 C        -3.844152         0.894658        -1.109121
 C        -2.538240         0.153429        -1.461242
 C        -2.186843        -0.839821        -2.561947
 C        -2.103815        -1.254168        -1.037249
 C        -0.694337        -1.310194        -0.486393
 C        -0.346717        -0.070065         0.398797
 O         0.274154        -0.250367         1.426269
 C        -0.945953         1.205603         0.001496
 O        -1.372944         1.077665        -1.439657
 H        -3.465444         1.963863        -1.006740
 H        -4.513857         0.897260        -1.950474
 H        -4.368656         0.627101        -0.125852
 H        -2.946834        -1.356563        -3.112799
 H        -1.446796        -0.597750        -3.276586
 H        -2.923763        -1.954963        -0.700283
 H        -0.536043        -2.152822         0.218389
 H         0.052219        -1.421278        -1.285214
 H        -1.854992         1.311533         0.679790
 H        -0.307718         2.116922         0.003957
