19
Iteration:   865
 C        -3.638976         0.568181        -0.612722
 C        -2.446137         0.063687        -1.417100
 C        -2.411757        -0.823558        -2.670409
 C        -1.856365        -1.314674        -1.213266
 C        -0.548454        -1.327994        -0.470665
 C        -0.461796        -0.036306         0.407724
 O        -0.420081         0.125895         1.639540
 C        -0.444799         1.200998        -0.556234
 O        -1.510034         1.138885        -1.447806
 H        -4.059545         1.533628        -1.014819
 H        -4.519099        -0.094625        -0.620030
 H        -3.312213         0.764239         0.395850
 H        -3.236568        -1.263418        -3.180077
 H        -1.567912        -0.620298        -3.376633
 H        -2.544280        -2.114484        -0.842693
 H        -0.550323        -2.143756         0.270986
 H         0.465047        -1.399062        -1.136316
 H        -0.575331         2.108808         0.020828
 H         0.634454         1.069597        -1.027953
