19
Iteration:   765
 C        -3.902365         0.656806        -1.421196
 C        -2.563427         0.131206        -1.420137
 C        -2.417299        -1.058800        -2.471438
 C        -2.015398        -1.250251        -0.964211
 C        -0.537740        -1.266865        -0.398752
 C        -0.220586        -0.014330         0.403054
 O         0.302068        -0.159623         1.521918
 C        -0.719299         1.322879        -0.253391
 O        -1.675123         1.263385        -1.266088
 H        -3.996579         1.232588        -2.346249
 H        -4.687411        -0.074358        -1.336516
 H        -3.970722         1.399011        -0.671100
 H        -3.375371        -1.527079        -2.559280
 H        -1.850548        -1.162171        -3.319952
 H        -2.658688        -1.951464        -0.417638
 H        -0.388864        -2.135442         0.257084
 H         0.357020        -1.418959        -1.158272
 H        -0.984201         1.940716         0.596220
 H         0.213471         1.825928        -0.651227
