19
Iteration:  4951
 C        -3.875411         0.761159        -2.073785
 C        -2.552959         0.278322        -1.426982
 C        -1.603814        -0.623109        -2.228984
 C        -2.251359        -1.154355        -0.969010
 C        -1.318465        -1.380922         0.240484
 C        -0.242261        -0.311523         0.321421
 O         0.914725        -0.434904         0.616153
 C        -0.809434         1.145032        -0.025036
 O        -2.034143         1.328802        -0.621970
 H        -4.719049         0.056884        -2.205057
 H        -4.184759         1.543103        -1.425205
 H        -3.627472         1.242646        -3.043542
 H        -1.979975        -1.198452        -3.059875
 H        -0.467149        -0.410908        -2.468289
 H        -3.202308        -1.726345        -1.028773
 H        -2.059863        -1.384604         1.114847
 H        -0.779636        -2.314532         0.052189
 H        -0.993561         1.672675         0.917404
 H        -0.046423         1.668323        -0.646989
