19
Iteration:   834charge 0 multiplicity 1
 C        -3.831823         0.468041        -0.732642
 C        -2.433973         0.131715        -1.411359
 C        -2.311808        -0.816135        -2.572111
 C        -1.878157        -1.290529        -1.160710
 C        -0.596671        -1.336996        -0.308177
 C        -0.379975        -0.096987         0.345569
 O        -0.282047         0.047287         1.548286
 C        -0.419567         1.218091        -0.583642
 O        -1.544213         1.298808        -1.446523
 H        -4.094400         1.506689        -0.864564
 H        -4.557378        -0.173250        -1.209890
 H        -3.831476         0.222605         0.281728
 H        -3.245785        -1.284641        -2.956001
 H        -1.427591        -0.665627        -3.318627
 H        -2.714196        -1.963639        -0.961694
 H        -0.792662        -2.057084         0.518391
 H         0.228532        -1.871771        -0.824723
 H        -0.477112         2.079327         0.085479
 H         0.518379         1.390422        -1.138792
