19
Iteration:  4436charge 0 multiplicity 1
 C        -3.767202         0.689794        -2.156043
 C        -2.607164         0.206323        -1.407289
 C        -1.584757        -0.540522        -2.255489
 C        -2.253205        -1.131674        -0.946642
 C        -1.439194        -1.169565         0.322677
 C        -0.248100        -0.193201         0.224135
 O         0.865397        -0.539946         0.550123
 C        -0.667428         1.182886        -0.093530
 O        -2.092524         1.171425        -0.436828
 H        -3.962143        -0.032253        -2.950712
 H        -4.738453         0.792934        -1.552070
 H        -3.696630         1.574252        -2.685680
 H        -1.983383        -0.932823        -3.186578
 H        -0.458839        -0.467886        -2.383584
 H        -3.028502        -1.929085        -1.017304
 H        -1.908361        -0.915122         1.281567
 H        -0.927828        -2.218743         0.538913
 H        -0.616933         1.704395         0.838024
 H        -0.061980         1.813007        -0.775742
