19
Iteration:  2069
 C        -3.841883         0.860971        -1.191625
 C        -2.550790         0.194454        -1.502912
 C        -2.162529        -0.881088        -2.448258
 C        -2.114838        -1.126250        -0.988673
 C        -0.788065        -1.333685        -0.310294
 C        -0.274089        -0.117482         0.333230
 O         0.330171        -0.098311         1.433031
 C        -0.848660         1.055670        -0.174381
 O        -1.469851         1.078420        -1.467074
 H        -4.318619         1.202035        -2.098458
 H        -4.641733         0.206275        -0.885738
 H        -3.854288         1.671632        -0.443180
 H        -2.801010        -1.399394        -3.084938
 H        -1.240054        -0.833024        -3.026937
 H        -2.937643        -1.750221        -0.557764
 H        -1.021438        -1.879574         0.668157
 H        -0.026050        -1.784165        -0.962714
 H        -1.590213         1.226990         0.614750
 H        -0.175577         1.858723        -0.126337
