19
Iteration:  3181
 C        -3.827213         0.571270        -2.104594
 C        -2.442347         0.267216        -1.341818
 C        -1.656261        -0.756583        -2.183831
 C        -2.300975        -1.168744        -0.819271
 C        -1.315476        -1.288939         0.232355
 C        -0.258870        -0.196241         0.194030
 O         0.919316        -0.405196         0.347698
 C        -0.868027         1.214309         0.256965
 O        -1.974929         1.385370        -0.747784
 H        -3.881178         1.658415        -2.367527
 H        -3.915177         0.076769        -3.012035
 H        -4.729505         0.451647        -1.455433
 H        -2.067226        -1.044250        -3.172251
 H        -0.569481        -0.830581        -2.128890
 H        -3.379984        -1.653653        -0.915014
 H        -1.839917        -1.269350         1.174602
 H        -0.889040        -2.286739         0.163933
 H        -1.444010         1.425596         1.177168
 H        -0.173163         2.113164         0.284993
