19
Iteration:  1418
 C        -3.656288         0.997805        -0.917804
 C        -2.514425         0.128363        -1.362386
 C        -2.513890        -0.977318        -2.384673
 C        -1.855612        -1.263976        -1.048978
 C        -0.391338        -1.304166        -0.561185
 C        -0.455105        -0.061196         0.346916
 O        -0.189320        -0.125006         1.539116
 C        -0.825691         1.214986        -0.274087
 O        -1.307702         0.960112        -1.609016
 H        -3.283204         2.015560        -1.291797
 H        -4.657170         0.752973        -1.373189
 H        -3.821449         1.029969         0.168614
 H        -3.498727        -1.477783        -2.451115
 H        -1.915734        -0.738500        -3.285980
 H        -2.485252        -1.912652        -0.488375
 H        -0.360672        -2.238286        -0.066110
 H         0.266894        -1.269991        -1.364232
 H        -1.632275         1.735485         0.234443
 H         0.062041         1.948174        -0.378064
