19
Iteration:  3699charge 0 multiplicity 1
 C        -3.673956         0.961098        -1.317209
 C        -2.457794         0.218582        -1.441656
 C        -2.392559        -0.914900        -2.517332
 C        -2.044688        -1.167294        -1.005796
 C        -0.516795        -1.304016        -0.643425
 C        -0.318935        -0.229737         0.395969
 O         0.223875        -0.286408         1.458395
 C        -1.052771         1.073641         0.086779
 O        -1.481159         1.197222        -1.285634
 H        -4.617497         0.583893        -0.938063
 H        -3.392155         1.775732        -0.748547
 H        -3.894957         1.401684        -2.339442
 H        -3.254214        -1.066530        -3.155865
 H        -1.437736        -0.958681        -3.119712
 H        -2.826194        -1.696168        -0.436756
 H        -0.399788        -2.338302        -0.255216
 H         0.142466        -0.853781        -1.441003
 H        -1.918653         1.043803         0.701171
 H        -0.611063         1.908902         0.451275
