19
Iteration:  2362
 C        -3.913754         0.734652        -1.498982
 C        -2.533271         0.246142        -1.448477
 C        -2.148440        -0.843095        -2.356612
 C        -2.121248        -1.142927        -0.850937
 C        -0.810110        -1.531386        -0.220328
 C        -0.350774        -0.144659         0.437287
 O         0.608819        -0.113588         1.190013
 C        -1.017237         1.235825        -0.053838
 O        -1.509009         1.156262        -1.377579
 H        -3.679839         1.756586        -1.802799
 H        -4.484648         0.397793        -2.375334
 H        -4.464517         0.775014        -0.532090
 H        -2.889330        -1.272924        -2.986783
 H        -1.174468        -0.745041        -2.846448
 H        -3.019213        -1.633106        -0.585256
 H        -0.857626        -2.244786         0.639448
 H        -0.016464        -1.781036        -1.035002
 H        -1.884438         1.536102         0.550106
 H        -0.196193         1.905783         0.040024
