19
Iteration:  4754
 C        -3.931370         0.866132        -1.716129
 C        -2.579046         0.303311        -1.445531
 C        -1.838591        -0.706601        -2.464299
 C        -2.208924        -1.224372        -1.027749
 C        -1.040586        -1.412137        -0.118607
 C        -0.329920        -0.240280         0.402844
 O         0.604238        -0.368570         1.156926
 C        -0.601626         1.112102        -0.204066
 O        -1.879145         1.294277        -0.809551
 H        -4.594333         0.047458        -2.098116
 H        -4.457537         1.291954        -0.801127
 H        -3.887669         1.772674        -2.374914
 H        -2.416865        -1.003522        -3.326306
 H        -0.812383        -0.622831        -2.716529
 H        -3.098631        -1.796688        -0.769818
 H        -1.279517        -2.067854         0.686434
 H        -0.195416        -1.835033        -0.618454
 H        -0.453650         1.830846         0.553158
 H         0.130639         1.222863        -1.028783
