19
Iteration:  1647
 C        -3.831221         0.895405        -1.609336
 C        -2.529070         0.181745        -1.494291
 C        -2.371013        -1.012784        -2.381063
 C        -2.213566        -1.147156        -0.855921
 C        -0.776732        -1.343206        -0.345047
 C        -0.254177        -0.045753         0.451255
 O         0.650900        -0.203015         1.256450
 C        -1.046754         1.214221         0.097858
 O        -1.398892         1.085500        -1.309370
 H        -3.759896         1.800928        -2.244021
 H        -4.515798         0.192563        -2.122722
 H        -4.296994         1.074913        -0.667200
 H        -3.282265        -1.133364        -2.948162
 H        -1.534164        -1.116434        -3.045275
 H        -2.981712        -1.754577        -0.324109
 H        -0.596828        -2.172930         0.386460
 H        -0.061451        -1.441140        -1.183762
 H        -2.014800         1.397406         0.641159
 H        -0.517025         2.150505         0.159969
