19
Iteration:  1549
 C        -3.824629         0.643906        -0.798175
 C        -2.471690         0.188329        -1.500150
 C        -2.277379        -0.895699        -2.520263
 C        -2.086977        -1.132877        -1.070122
 C        -0.692729        -1.296587        -0.477579
 C        -0.442702        -0.109076         0.478171
 O        -0.059051        -0.095082         1.643618
 C        -0.512472         1.220238        -0.425242
 O        -1.403415         1.108581        -1.595040
 H        -4.560103         0.957589        -1.643253
 H        -4.222842        -0.300504        -0.320509
 H        -3.548520         1.419695        -0.060082
 H        -3.117729        -1.296329        -3.118446
 H        -1.443495        -0.689588        -3.199009
 H        -2.911574        -1.637655        -0.598607
 H        -0.704533        -2.281355         0.032897
 H         0.118021        -1.271403        -1.188981
 H        -0.774061         2.077552         0.150206
 H         0.437446         1.420665        -0.906039
