19
Iteration:  3680charge 0 multiplicity 1
 C        -3.824631         0.890082        -1.174838
 C        -2.435169         0.274500        -1.548412
 C        -2.269313        -0.877099        -2.493790
 C        -2.069241        -1.171172        -1.024192
 C        -0.623776        -1.263262        -0.664080
 C        -0.353813        -0.158721         0.422722
 O         0.177714        -0.377864         1.502143
 C        -1.010675         1.154197         0.014798
 O        -1.336507         1.162717        -1.348402
 H        -4.428420         0.115360        -0.664888
 H        -3.732017         1.774998        -0.568233
 H        -4.299466         1.272617        -2.133220
 H        -3.158051        -1.299122        -2.821612
 H        -1.413602        -0.914594        -3.144039
 H        -2.894845        -1.716006        -0.600252
 H        -0.280216        -2.158284        -0.126974
 H         0.021541        -1.061431        -1.554867
 H        -1.858042         1.370959         0.708030
 H        -0.191441         1.899388         0.225164
