19
Iteration:  1222
 C        -3.818438         0.633686        -1.928135
 C        -2.415675         0.263432        -1.529555
 C        -1.532492        -0.819825        -2.097812
 C        -2.217698        -1.069443        -0.785194
 C        -1.381220        -1.356649         0.596215
 C        -0.398436        -0.259751         0.358147
 O         0.766656        -0.287109        -0.016790
 C        -1.147990         1.077711         0.295036
 O        -1.617848         1.452733        -1.017261
 H        -3.886551         1.489432        -2.596493
 H        -4.188552        -0.288268        -2.361003
 H        -4.323057         0.884250        -1.052958
 H        -1.811047        -1.405113        -2.975653
 H        -0.405135        -0.590932        -2.160616
 H        -3.212448        -1.567475        -0.856184
 H        -2.139324        -1.167880         1.510139
 H        -0.953358        -2.411237         0.733660
 H        -2.002944         0.977058         0.968003
 H        -0.318113         1.840457         0.562069
