19
Iteration:  3716
 C        -3.811593         1.079233        -1.423750
 C        -2.490702         0.220243        -1.468486
 C        -2.347703        -0.865853        -2.485573
 C        -2.063649        -1.281094        -1.063062
 C        -0.541194        -1.310454        -0.622913
 C        -0.329610        -0.203920         0.439753
 O         0.352175        -0.287274         1.471241
 C        -1.116750         1.060659         0.143439
 O        -1.383378         1.185094        -1.260751
 H        -4.695583         0.406543        -1.438409
 H        -3.877679         1.771763        -0.476570
 H        -3.950039         1.583088        -2.379643
 H        -3.352092        -1.334874        -2.736600
 H        -1.666816        -0.883472        -3.329962
 H        -2.630674        -1.957758        -0.396741
 H        -0.178437        -2.268817        -0.220738
 H        -0.040198        -1.214148        -1.571365
 H        -2.076923         1.176462         0.804231
 H        -0.426021         1.995891         0.316633
