19
Iteration:  2943charge 0 multiplicity 1
 C        -3.704373         0.766995        -0.940412
 C        -2.445018         0.158037        -1.495485
 C        -2.381028        -0.946067        -2.511230
 C        -2.093092        -1.279106        -1.076477
 C        -0.597841        -1.270992        -0.541510
 C        -0.428903        -0.112300         0.444211
 O        -0.014140        -0.059052         1.628551
 C        -0.769349         1.278903        -0.264328
 O        -1.357549         1.033795        -1.553842
 H        -3.680159         1.831586        -1.344196
 H        -4.577012         0.228349        -1.297588
 H        -3.678301         1.032763         0.143391
 H        -3.319472        -1.253849        -2.898467
 H        -1.439693        -1.012899        -3.111519
 H        -2.750374        -1.988261        -0.492027
 H        -0.256144        -2.256876        -0.082079
 H         0.043992        -1.112261        -1.400675
 H        -1.353754         1.892873         0.494377
 H         0.165594         1.923663        -0.421416
