19
Iteration:  2564
 C        -3.831457         0.583871        -1.866244
 C        -2.457146         0.235840        -1.440842
 C        -1.741931        -0.866443        -2.347323
 C        -2.194402        -1.084146        -0.897713
 C        -1.248292        -1.307177         0.371555
 C        -0.324744        -0.208683         0.379984
 O         0.873896        -0.318913         0.357087
 C        -1.074261         1.150234         0.254629
 O        -1.718377         1.468356        -0.974444
 H        -3.853328         1.525547        -2.464145
 H        -4.164541        -0.318269        -2.361485
 H        -4.638195         0.740799        -1.100739
 H        -2.367810        -1.315780        -3.060075
 H        -0.740162        -0.771060        -2.695115
 H        -3.129756        -1.651670        -0.912536
 H        -2.038782        -1.381520         1.214598
 H        -0.759818        -2.230108         0.379993
 H        -1.831882         1.075486         1.048976
 H        -0.296060         1.934571         0.524849
