19
Iteration:  4319charge 0 multiplicity 1
 C        -4.079009         0.696989        -1.893452
 C        -2.553406         0.287903        -1.511609
 C        -1.694978        -0.570496        -2.435388
 C        -2.146120        -1.043894        -0.982135
 C        -1.307970        -1.381625         0.268486
 C        -0.236312        -0.251399         0.403982
 O         0.907929        -0.446774         0.825356
 C        -0.784019         1.064483        -0.034163
 O        -1.866011         1.310022        -0.822270
 H        -4.586642        -0.195276        -2.330169
 H        -4.771583         1.260588        -1.141532
 H        -4.094935         1.312191        -2.897979
 H        -2.116157        -1.044281        -3.250083
 H        -0.708832        -0.180972        -2.753413
 H        -2.964902        -1.848939        -1.138012
 H        -1.999781        -1.419588         1.174421
 H        -0.909375        -2.383140        -0.038537
 H        -0.919213         1.535404         1.009499
 H         0.215209         1.558358        -0.302042
