19
Iteration:  1718
 C        -3.992159         0.671707        -1.507071
 C        -2.566021         0.161349        -1.432749
 C        -1.784532        -0.739365        -2.464347
 C        -2.060467        -1.208281        -1.094698
 C        -1.325200        -1.235558         0.164326
 C        -0.327050        -0.111983         0.340426
 O         0.754313        -0.354885         0.864875
 C        -0.850491         1.276364         0.041575
 O        -1.561836         1.145469        -1.159269
 H        -4.468414         1.223042        -2.365548
 H        -4.771885        -0.110005        -1.260710
 H        -4.181848         1.471859        -0.590233
 H        -2.407675        -1.256908        -3.282581
 H        -0.938757        -0.270425        -2.983219
 H        -2.815425        -1.953613        -1.150044
 H        -2.090810        -1.129909         0.925155
 H        -0.772552        -2.152722         0.390152
 H        -1.453929         1.709025         0.825885
 H        -0.104267         2.071191        -0.216149
