19
Iteration:  3672charge 0 multiplicity 1
 C        -3.870225         0.817713        -1.150952
 C        -2.469000         0.348208        -1.534409
 C        -2.297975        -0.869035        -2.481729
 C        -2.090904        -1.185048        -1.086159
 C        -0.570531        -1.260978        -0.600081
 C        -0.400323        -0.159163         0.437365
 O         0.172985        -0.410028         1.510448
 C        -0.938102         1.204102         0.023684
 O        -1.276397         1.147435        -1.403658
 H        -4.552042         0.074090        -0.707424
 H        -3.818269         1.702275        -0.390468
 H        -4.473182         1.101612        -2.018361
 H        -3.126075        -1.261014        -3.124681
 H        -1.404779        -0.873151        -3.083107
 H        -2.961588        -1.766135        -0.718785
 H        -0.349698        -2.193712        -0.084368
 H         0.080865        -1.050318        -1.438674
 H        -1.827680         1.710379         0.612104
 H        -0.080133         2.029655         0.118349
