19
Iteration:  1479
 C        -3.867974         0.657597        -0.797024
 C        -2.415883         0.318084        -1.339025
 C        -2.371466        -0.906094        -2.289139
 C        -1.965491        -1.185053        -0.914847
 C        -0.427287        -1.396651        -0.546545
 C        -0.360337        -0.099678         0.249250
 O        -0.558662        -0.148832         1.454550
 C        -0.351809         1.234597        -0.524049
 O        -1.360165         1.193429        -1.585648
 H        -4.143835         1.656246        -1.034148
 H        -4.559851        -0.033812        -1.258612
 H        -3.763261         0.584175         0.321294
 H        -3.345011        -1.252531        -2.718634
 H        -1.728340        -0.976003        -3.162439
 H        -2.471910        -1.770555        -0.080764
 H        -0.271303        -2.287812         0.101132
 H         0.331544        -1.500841        -1.474248
 H        -0.694122         1.934795         0.316011
 H         0.628717         1.496968        -0.820389
