19
Iteration:   306charge 0 multiplicity 1
 C        -3.842087         0.633773        -1.194480
 C        -2.485975         0.102039        -1.519372
 C        -2.169085        -0.931664        -2.485660
 C        -2.138299        -1.235472        -0.997370
 C        -0.974619        -1.312890        -0.017940
 C        -0.366123        -0.033872         0.415723
 O         0.646437         0.193640         1.055763
 C        -1.085893         1.229827        -0.072250
 O        -1.355348         0.977245        -1.448491
 H        -4.056972         0.627117        -0.133766
 H        -4.006439         1.629262        -1.642952
 H        -4.636470        -0.089186        -1.614216
 H        -2.951527        -1.391517        -3.122435
 H        -1.309651        -0.736966        -3.171153
 H        -2.970685        -1.848177        -0.792495
 H        -1.420736        -1.772775         0.885355
 H        -0.105647        -1.991003        -0.141766
 H        -1.994749         1.470002         0.535542
 H        -0.257181         1.987598         0.084037
