19
Iteration:   464
 C        -3.963411         0.534927        -1.913075
 C        -2.551480         0.125778        -1.414307
 C        -1.524557        -0.609914        -2.187134
 C        -2.061453        -1.198444        -0.839490
 C        -1.297220        -1.294762         0.489632
 C        -0.300048        -0.184002         0.371034
 O         0.893945        -0.241206         0.317622
 C        -0.884396         1.175022        -0.088532
 O        -2.085896         1.279680        -0.847761
 H        -3.828010         1.277120        -2.740419
 H        -4.551527        -0.324475        -2.159455
 H        -4.345797         1.179278        -1.171618
 H        -1.632128        -1.091873        -3.105302
 H        -0.569016        -0.140285        -2.112954
 H        -2.766657        -1.969357        -1.119287
 H        -2.089561        -1.184389         1.284034
 H        -0.770237        -2.199663         0.542432
 H        -1.147189         1.702619         0.835400
 H        -0.056401         1.582945        -0.634943
