19
Iteration:   218
 C        -3.902426         0.580702        -1.256484
 C        -2.446873         0.082790        -1.381274
 C        -2.508630        -1.156273        -2.165665
 C        -2.079937        -1.178255        -0.723428
 C        -0.532281        -1.133984        -0.614885
 C        -0.238556         0.039357         0.315865
 O         0.079545        -0.021164         1.503228
 C        -0.733894         1.302062        -0.320244
 O        -1.354423         1.078002        -1.579508
 H        -4.595244        -0.035472        -1.871368
 H        -4.293538         0.639363        -0.214651
 H        -3.920088         1.643560        -1.719173
 H        -3.496455        -1.572235        -2.466022
 H        -1.685724        -1.399514        -2.800769
 H        -2.606530        -1.533670         0.081766
 H        -0.188293        -2.058741        -0.202607
 H        -0.016503        -0.934639        -1.576251
 H        -1.472754         1.869343         0.359894
 H         0.167049         2.067898        -0.453634
