19
Iteration:  4714
 C        -3.993969         0.665995        -1.709299
 C        -2.445354         0.286005        -1.420070
 C        -1.984728        -0.622280        -2.487865
 C        -2.221582        -1.113834        -1.114123
 C        -1.065521        -1.436123        -0.078352
 C        -0.240199        -0.242757         0.343235
 O         0.554534        -0.401761         1.248164
 C        -0.497280         1.137768        -0.247887
 O        -1.843924         1.391883        -0.792397
 H        -4.330968        -0.149208        -2.389963
 H        -4.670242         0.585109        -0.931104
 H        -4.062861         1.723418        -2.182573
 H        -2.725966        -0.816739        -3.354516
 H        -0.940126        -0.764314        -2.692071
 H        -3.120736        -1.650887        -0.880106
 H        -1.514988        -1.744838         0.929989
 H        -0.401654        -2.252273        -0.586542
 H        -0.398809         1.924506         0.550186
 H         0.360583         1.241233        -1.000218
