19
Iteration:   205charge 0 multiplicity 1
 C        -3.856207         0.763588        -1.124545
 C        -2.518976         0.119019        -1.463038
 C        -2.390486        -1.252028        -2.230207
 C        -1.954088        -1.172079        -0.746027
 C        -0.459027        -1.197255        -0.514762
 C        -0.279077         0.017389         0.307765
 O         0.006257        -0.031963         1.503897
 C        -0.775964         1.342731        -0.376269
 O        -1.460971         1.012120        -1.611463
 H        -4.735177         0.347107        -1.708411
 H        -4.112814         0.590374        -0.048753
 H        -3.827612         1.835277        -1.327483
 H        -3.356849        -1.594950        -2.410822
 H        -1.642611        -1.410166        -2.990981
 H        -2.599091        -1.682473        -0.000618
 H        -0.033370        -2.088786        -0.072995
 H        -0.037919        -0.968837        -1.541689
 H        -1.442099         1.760541         0.447521
 H         0.046327         2.102531        -0.700445
