19
Iteration:  4092charge 0 multiplicity 1
 C        -3.867235         0.744442        -1.687839
 C        -2.494969         0.207026        -1.415952
 C        -1.814917        -0.670568        -2.456395
 C        -2.328919        -1.198289        -0.984923
 C        -1.067977        -1.460964        -0.174732
 C        -0.336145        -0.194773         0.390135
 O         0.622003        -0.345025         1.095970
 C        -0.643294         1.224100        -0.153799
 O        -1.836203         1.367167        -0.838665
 H        -4.473704         0.121311        -2.327425
 H        -4.488879         0.702599        -0.853315
 H        -4.043391         1.749641        -2.098196
 H        -2.418032        -1.143466        -3.283439
 H        -0.751073        -0.705036        -2.556822
 H        -3.384728        -1.750286        -1.019347
 H        -1.332572        -2.123166         0.680818
 H        -0.384861        -2.111431        -0.675107
 H        -0.722127         1.910451         0.755982
 H         0.249158         1.220728        -0.760724
