19
Iteration:   230
 C        -3.920606         0.508436        -1.383258
 C        -2.481693         0.176234        -1.345927
 C        -2.524406        -1.157111        -2.180610
 C        -2.099234        -1.148875        -0.703433
 C        -0.584065        -1.187133        -0.627988
 C        -0.287593         0.042393         0.396156
 O         0.225417        -0.013545         1.481097
 C        -0.710579         1.346903        -0.254557
 O        -1.350756         1.089403        -1.547736
 H        -4.402831        -0.405659        -1.719070
 H        -4.428713         0.791664        -0.430675
 H        -4.254501         1.285386        -2.209384
 H        -3.579917        -1.473926        -2.539868
 H        -1.787326        -1.417162        -2.957438
 H        -2.690972        -1.576476         0.019485
 H        -0.123824        -2.075422        -0.197908
 H        -0.234546        -1.068942        -1.645605
 H        -1.362873         1.939650         0.501102
 H         0.356821         1.855226        -0.390554
