19
Iteration:    93
 C        -3.801880         0.698140        -0.806933
 C        -2.507116         0.015604        -1.317243
 C        -2.329225        -1.070708        -2.364921
 C        -1.913676        -1.289263        -0.888555
 C        -0.394617        -1.375158        -0.405976
 C        -0.374099        -0.011954         0.282837
 O        -0.322660         0.226303         1.481309
 C        -0.505404         1.226872        -0.690022
 O        -1.604237         1.131797        -1.556525
 H        -4.691415         0.067627        -0.930447
 H        -3.666105         1.074897         0.231222
 H        -3.886508         1.577766        -1.493842
 H        -3.033841        -1.724056        -2.979730
 H        -1.438863        -0.792771        -2.942707
 H        -2.607935        -1.919776        -0.192640
 H        -0.170749        -2.179113         0.365238
 H         0.360018        -1.449369        -1.226543
 H        -0.488379         2.076043         0.066936
 H         0.518237         1.258220        -1.244548
