19
Iteration:  1965charge 0 multiplicity 1
 C        -3.836985         0.851513        -1.771557
 C        -2.558834         0.207173        -1.504262
 C        -1.996866        -0.842754        -2.423574
 C        -2.183198        -1.145500        -0.876892
 C        -1.112195        -1.490507         0.184172
 C        -0.308787        -0.187907         0.432246
 O         0.853007        -0.107770         0.732788
 C        -1.082937         1.163082         0.158606
 O        -1.580394         1.151324        -1.133158
 H        -3.763515         1.906447        -2.165733
 H        -4.534046         0.340877        -2.525201
 H        -4.346342         0.978165        -0.791109
 H        -2.746481        -1.373345        -3.014016
 H        -0.922786        -0.712402        -2.766571
 H        -3.081402        -1.723695        -0.735207
 H        -1.503864        -1.862568         1.070572
 H        -0.411869        -2.231631        -0.137861
 H        -1.685700         1.430159         1.039383
 H        -0.209592         1.921900         0.198040
