19
Iteration:   107
 C        -3.713860         0.569290        -0.703251
 C        -2.490824         0.093305        -1.376745
 C        -2.347047        -1.052563        -2.375998
 C        -1.884829        -1.247184        -0.958632
 C        -0.502550        -1.251876        -0.353298
 C        -0.422410         0.079748         0.315701
 O        -0.309438         0.167954         1.544636
 C        -0.480441         1.183680        -0.672148
 O        -1.543692         1.072187        -1.697270
 H        -4.680249         0.029462        -1.013915
 H        -3.667640         0.388283         0.426829
 H        -3.877397         1.604842        -0.932989
 H        -3.248568        -1.540630        -2.641250
 H        -1.610809        -0.837561        -3.121174
 H        -2.638589        -1.819265        -0.334897
 H        -0.526755        -2.044764         0.408024
 H         0.313157        -1.438644        -1.069463
 H        -0.613220         2.226697        -0.314251
 H         0.463577         1.138208        -1.316829
