19
Iteration:   223
 C        -3.894217         0.540766        -1.312030
 C        -2.448135         0.113502        -1.353332
 C        -2.549890        -1.151154        -2.172018
 C        -2.087382        -1.172907        -0.711400
 C        -0.555956        -1.146926        -0.657486
 C        -0.250770         0.077430         0.328152
 O         0.135047        -0.019849         1.513781
 C        -0.717269         1.318670        -0.296275
 O        -1.342606         1.088183        -1.569755
 H        -4.509548        -0.190530        -1.815999
 H        -4.417467         0.600274        -0.353615
 H        -4.038290         1.429285        -1.896082
 H        -3.547877        -1.508929        -2.423780
 H        -1.631113        -1.348228        -2.779809
 H        -2.794683        -1.568335         0.138020
 H        -0.221478        -2.099804        -0.158892
 H        -0.083607        -0.958399        -1.614565
 H        -1.404800         1.825221         0.320840
 H         0.199353         1.810666        -0.264332
