19
Iteration:  4962charge 0 multiplicity 1
 C        -3.870548         0.825895        -2.041317
 C        -2.549718         0.218794        -1.494394
 C        -1.596450        -0.595889        -2.265034
 C        -2.140827        -1.149731        -0.925419
 C        -1.295166        -1.375195         0.339015
 C        -0.290342        -0.246914         0.299556
 O         0.886180        -0.552165         0.585448
 C        -0.812547         1.152145        -0.032870
 O        -2.137067         1.331009        -0.660944
 H        -4.699205         0.096993        -2.096108
 H        -4.113793         1.619413        -1.399858
 H        -3.659695         1.129818        -3.068751
 H        -1.861234        -0.984270        -3.232846
 H        -0.591414        -0.013411        -2.209757
 H        -2.805729        -1.990115        -1.212976
 H        -1.818089        -1.204990         1.347221
 H        -0.817082        -2.365695         0.426235
 H        -0.742970         1.683333         0.924986
 H        -0.033136         1.639602        -0.659064
