19
Iteration:  4078
 C        -3.847060         0.732315        -1.655776
 C        -2.475155         0.283286        -1.411113
 C        -1.866370        -0.733833        -2.348054
 C        -2.280053        -1.202644        -1.029829
 C        -1.070952        -1.529946        -0.161968
 C        -0.300412        -0.248034         0.249674
 O         0.568637        -0.345140         1.107369
 C        -0.678187         1.210572        -0.126029
 O        -1.864059         1.411723        -0.913086
 H        -4.391354         0.113307        -2.396270
 H        -4.325875         0.877587        -0.628147
 H        -3.643571         1.678443        -2.058560
 H        -2.302635        -0.729209        -3.304744
 H        -0.735291        -0.778267        -2.435713
 H        -3.082297        -1.860660        -0.811814
 H        -1.322946        -1.943725         0.845288
 H        -0.330210        -2.192924        -0.658781
 H        -0.790445         1.790434         0.869905
 H         0.043401         1.870342        -0.563240
