19
Iteration:   145charge 0 multiplicity 1
 C        -3.633949         0.459912        -0.577148
 C        -2.467324         0.011687        -1.474510
 C        -2.570347        -1.011477        -2.455749
 C        -1.994321        -1.313091        -1.080523
 C        -0.622733        -1.266555        -0.463067
 C        -0.420082         0.169317         0.357943
 O        -0.228145         0.362983         1.572560
 C        -0.597755         1.334321        -0.497052
 O        -1.228363         0.845662        -1.736293
 H        -4.522679         0.365881        -1.126449
 H        -3.669847        -0.019504         0.370350
 H        -3.503584         1.541388        -0.295936
 H        -3.579680        -1.331380        -2.920175
 H        -1.840796        -0.929674        -3.273667
 H        -2.627592        -1.828661        -0.385879
 H        -0.580892        -2.064684         0.299634
 H         0.259289        -1.392501        -1.081006
 H        -1.156051         2.071150         0.043744
 H         0.375248         1.678827        -0.581075
