19
Iteration:  1142charge 0 multiplicity 1
 C        -3.670105         0.717191        -2.199349
 C        -2.490573         0.207952        -1.430772
 C        -1.730174        -0.984729        -2.057308
 C        -2.426197        -1.104457        -0.645999
 C        -1.211204        -1.361737         0.387357
 C        -0.218463        -0.136375         0.275165
 O         0.983271        -0.241999         0.107105
 C        -1.153047         1.133874         0.346949
 O        -1.854350         1.411598        -0.878003
 H        -3.187457         1.271007        -2.966055
 H        -4.170750        -0.100419        -2.690064
 H        -4.384526         1.335936        -1.570146
 H        -2.152444        -1.192152        -3.056704
 H        -0.684177        -1.107099        -2.046093
 H        -3.374724        -1.649910        -0.486916
 H        -1.689307        -1.603338         1.407873
 H        -0.696647        -2.253743         0.050335
 H        -1.971020         0.928802         1.047959
 H        -0.759025         2.037647         0.676019
