19
Iteration:  3047charge 0 multiplicity 1
 C        -3.824042         0.852615        -1.625203
 C        -2.499590         0.188006        -1.536291
 C        -1.985650        -0.900039        -2.391596
 C        -2.223850        -1.236330        -0.956263
 C        -1.053922        -1.386185         0.018485
 C        -0.345328        -0.072789         0.471357
 O         0.791641        -0.175117         0.843166
 C        -1.120188         1.186927         0.182827
 O        -1.524281         1.192260        -1.233101
 H        -4.037721         1.081859        -2.648027
 H        -4.623035         0.135974        -1.363017
 H        -3.973738         1.614694        -0.872937
 H        -2.696237        -1.441364        -2.998123
 H        -0.948418        -0.661953        -2.768896
 H        -3.051322        -1.837057        -0.691579
 H        -1.412089        -1.843844         0.894904
 H        -0.269158        -2.063267        -0.450287
 H        -1.985181         1.199305         0.909921
 H        -0.449823         1.989989         0.416776
