19
Iteration:  2331charge 0 multiplicity 1
 C        -3.886189         0.853378        -1.380796
 C        -2.527512         0.142753        -1.557796
 C        -2.270963        -1.124577        -2.464821
 C        -2.183143        -1.253911        -0.963653
 C        -0.731594        -1.315116        -0.348834
 C        -0.262298        -0.023189         0.366249
 O         0.385584        -0.087687         1.422198
 C        -0.761714         1.248064        -0.103050
 O        -1.521519         1.146895        -1.291546
 H        -3.436647         1.860294        -1.403544
 H        -4.769840         0.675084        -2.090754
 H        -4.350253         0.816009        -0.339267
 H        -3.172815        -1.423676        -2.990215
 H        -1.321055        -1.285432        -3.064316
 H        -2.894570        -1.844663        -0.446053
 H        -0.486963        -2.140198         0.383458
 H        -0.131453        -1.403629        -1.308050
 H        -1.510374         1.437781         0.777182
 H        -0.084971         2.063883        -0.012646
