19
Iteration:   649
 C        -4.069640         0.658652        -1.451691
 C        -2.632219         0.153439        -1.542704
 C        -1.857386        -0.810513        -2.380725
 C        -2.154577        -1.146626        -0.915893
 C        -1.006604        -1.380811         0.047749
 C        -0.283780        -0.053462         0.392967
 O         0.847420        -0.098505         0.900827
 C        -1.072749         1.217828         0.057705
 O        -1.551887         1.090917        -1.336822
 H        -4.221601         1.744965        -1.795410
 H        -4.685428        -0.004167        -2.129189
 H        -4.536480         0.685624        -0.450927
 H        -2.297709        -1.438560        -3.198481
 H        -0.882032        -0.433806        -2.556385
 H        -3.021099        -1.786273        -0.867486
 H        -1.322147        -1.759081         1.051652
 H        -0.238340        -2.023155        -0.282943
 H        -1.934826         1.400573         0.776409
 H        -0.463658         2.105679         0.087209
