19
Iteration:  1014
 C        -3.876760         0.641666        -1.272000
 C        -2.441266         0.243257        -1.528459
 C        -2.230665        -0.881654        -2.527720
 C        -2.166103        -1.149186        -1.032150
 C        -0.936405        -1.465380        -0.196140
 C        -0.367505        -0.135733         0.444565
 O         0.478564         0.019467         1.309020
 C        -0.791686         1.125206        -0.083599
 O        -1.425370         1.202641        -1.374944
 H        -4.211289         1.453082        -1.925411
 H        -4.534246        -0.214310        -1.413900
 H        -4.113919         1.057550        -0.275566
 H        -3.056010        -1.186953        -3.092941
 H        -1.300317        -0.889310        -3.107738
 H        -3.061901        -1.707355        -0.677012
 H        -1.145320        -2.199327         0.523629
 H        -0.139752        -1.801108        -0.825679
 H        -1.393496         1.678479         0.701055
 H         0.023229         1.757140        -0.345128
