19
Iteration:  1886
 C        -3.957223         0.681687        -1.831829
 C        -2.466046         0.330165        -1.498817
 C        -1.631499        -0.772226        -2.157021
 C        -2.207379        -1.156567        -0.788467
 C        -1.339018        -1.577939         0.390968
 C        -0.377422        -0.294785         0.386605
 O         0.813685        -0.253402         0.352355
 C        -1.027168         1.247259         0.177975
 O        -1.604529         1.415202        -1.149479
 H        -3.937128         1.204450        -2.795105
 H        -4.622114        -0.216309        -1.896572
 H        -4.514704         1.336936        -1.101555
 H        -1.979346        -1.283426        -3.060722
 H        -0.669993        -0.358818        -2.356974
 H        -3.146066        -1.792593        -0.900950
 H        -1.850433        -1.674204         1.313858
 H        -0.643675        -2.431834         0.236368
 H        -1.659446         1.445214         1.049567
 H        -0.057750         1.729417         0.254408
