19
Iteration:  4224
 C        -4.025476         0.638309        -1.813876
 C        -2.612568         0.244630        -1.390241
 C        -1.918821        -0.493437        -2.477675
 C        -2.150974        -1.149908        -1.022077
 C        -1.144303        -1.429201         0.059474
 C        -0.292683        -0.277621         0.484903
 O         0.724535        -0.391169         1.099100
 C        -0.611914         1.139643        -0.218801
 O        -1.791663         1.342965        -0.865699
 H        -4.271812         0.063988        -2.694815
 H        -4.770742         0.666495        -1.100900
 H        -3.906408         1.688726        -2.285467
 H        -2.440754        -1.082384        -3.166274
 H        -1.043004         0.028138        -2.971138
 H        -2.965486        -1.967971        -1.135125
 H        -1.617888        -1.935879         0.941637
 H        -0.446210        -2.131329        -0.370998
 H        -0.474408         1.976556         0.564014
 H         0.274299         1.426150        -0.792771
