19
Iteration:   224
 C        -3.893168         0.536915        -1.322992
 C        -2.451728         0.122514        -1.349551
 C        -2.554782        -1.153110        -2.175554
 C        -2.087942        -1.170950        -0.708713
 C        -0.560799        -1.152394        -0.658148
 C        -0.254639         0.079384         0.335368
 O         0.146608        -0.019225         1.512167
 C        -0.715706         1.322506        -0.291377
 O        -1.342024         1.088927        -1.567772
 H        -4.498782        -0.233041        -1.814001
 H        -4.432889         0.607513        -0.371910
 H        -4.065146         1.377925        -1.921866
 H        -3.519168        -1.485148        -2.417549
 H        -1.651193        -1.344721        -2.782163
 H        -2.808492        -1.572620         0.134845
 H        -0.219366        -2.093209        -0.160172
 H        -0.094078        -0.966683        -1.645687
 H        -1.398222         1.826687         0.334940
 H         0.225578         1.787466        -0.251287
