19
Iteration:   149
 C        -3.606501         0.519845        -0.597597
 C        -2.454571         0.037303        -1.445200
 C        -2.544207        -0.997096        -2.473819
 C        -1.980156        -1.349223        -1.075060
 C        -0.612926        -1.267044        -0.461684
 C        -0.410570         0.135371         0.365253
 O        -0.221108         0.369664         1.554850
 C        -0.680788         1.323278        -0.512127
 O        -1.241195         0.829309        -1.707884
 H        -4.585824         0.462685        -1.167695
 H        -3.674516        -0.015537         0.395591
 H        -3.511724         1.547562        -0.343011
 H        -3.507547        -1.394960        -2.794762
 H        -1.863704        -0.952574        -3.319833
 H        -2.705263        -1.975346        -0.362303
 H        -0.511546        -2.064294         0.332130
 H         0.243901        -1.375565        -1.184595
 H        -1.246028         2.077447         0.154773
 H         0.407537         1.716637        -0.709883
