19
Iteration:  1663charge 0 multiplicity 1
 C        -3.838404         0.747194        -1.570599
 C        -2.434266         0.231376        -1.467559
 C        -2.279622        -0.917047        -2.401671
 C        -2.220085        -1.136480        -0.873297
 C        -0.866225        -1.392473        -0.235611
 C        -0.274572        -0.156985         0.307894
 O         0.594717        -0.102597         1.156202
 C        -0.989010         1.108771         0.081788
 O        -1.440372         1.231136        -1.272382
 H        -3.816080         1.637141        -2.277985
 H        -4.557947         0.090694        -2.100343
 H        -4.216765         1.313601        -0.619914
 H        -3.145339        -1.371760        -2.926642
 H        -1.291094        -1.134928        -2.857120
 H        -3.096773        -1.432740        -0.325103
 H        -1.061574        -2.006686         0.630021
 H        -0.174919        -2.027675        -0.795023
 H        -1.775342         1.146528         0.825245
 H        -0.308965         1.953718         0.371591
