19
Iteration:  4417charge 0 multiplicity 1
 C        -3.859081         0.773433        -2.195682
 C        -2.641368         0.209316        -1.442225
 C        -1.598276        -0.537775        -2.104336
 C        -2.248912        -1.236625        -0.949052
 C        -1.428979        -1.197970         0.310217
 C        -0.180044        -0.297515         0.207958
 O         0.967557        -0.492498         0.594579
 C        -0.752398         1.141170        -0.137807
 O        -2.100668         1.195590        -0.486270
 H        -3.991096         0.257732        -3.137014
 H        -4.797819         0.933505        -1.594014
 H        -3.503794         1.849958        -2.483171
 H        -1.747083        -0.844493        -3.120260
 H        -0.659269        -0.115035        -2.048547
 H        -2.798141        -2.221334        -1.098339
 H        -2.054627        -0.538572         0.918662
 H        -0.998124        -2.134295         0.726328
 H        -0.591891         1.643782         0.856227
 H        -0.041369         1.684805        -0.848818
