19
Iteration:  4527charge 0 multiplicity 1
 C        -3.933967         0.686657        -1.912457
 C        -2.496765         0.283478        -1.536296
 C        -1.787108        -0.690109        -2.477702
 C        -2.207941        -1.044045        -1.044614
 C        -1.287488        -1.283540         0.156030
 C        -0.230340        -0.249519         0.398684
 O         0.892751        -0.500682         0.817459
 C        -0.695310         1.194176         0.084007
 O        -1.966661         1.300333        -0.738529
 H        -4.342729        -0.248137        -2.315807
 H        -4.411420         0.851359        -0.986305
 H        -4.130542         1.539472        -2.693356
 H        -2.416759        -1.105752        -3.216557
 H        -0.785538        -0.580434        -2.825326
 H        -3.069729        -1.696219        -1.018571
 H        -2.040338        -1.374081         0.957913
 H        -0.934110        -2.286998         0.346781
 H        -0.876030         1.549290         1.092694
 H         0.048483         1.821695        -0.448829
