19
Iteration:  4875
 C        -4.020615         0.757879        -1.837350
 C        -2.609901         0.253247        -1.500330
 C        -1.660847        -0.536306        -2.343655
 C        -2.212187        -1.158138        -1.024716
 C        -1.328940        -1.383327         0.188996
 C        -0.259299        -0.293620         0.426498
 O         0.851428        -0.380890         0.869230
 C        -0.586917         1.081047        -0.170808
 O        -1.949967         1.276665        -0.807394
 H        -4.504237         0.354190        -2.763116
 H        -4.753219         0.612246        -1.073618
 H        -3.930589         1.887357        -1.824671
 H        -1.862904        -0.932029        -3.348918
 H        -0.526944        -0.369718        -2.233139
 H        -2.983534        -1.902907        -1.284871
 H        -2.116560        -1.428625         0.947434
 H        -0.942679        -2.399565         0.156081
 H        -0.650263         1.829832         0.619081
 H         0.177284         1.394588        -0.876107
