19
Iteration:  3019charge 0 multiplicity 1
 C        -3.974102         0.777942        -1.665783
 C        -2.515249         0.189772        -1.499737
 C        -2.098091        -0.859556        -2.465831
 C        -2.280201        -1.187217        -0.910175
 C        -0.911183        -1.372535        -0.225352
 C        -0.262368        -0.118317         0.425848
 O         0.699666        -0.143500         1.232477
 C        -0.864452         1.178577         0.007146
 O        -1.575836         1.191759        -1.197833
 H        -4.211976         0.794843        -2.772092
 H        -4.677361         0.040591        -1.237729
 H        -4.065537         1.745788        -1.088458
 H        -2.956719        -1.303109        -2.924071
 H        -1.064232        -1.006122        -2.779130
 H        -3.147590        -1.720563        -0.351505
 H        -1.079422        -2.105399         0.654144
 H        -0.282156        -1.888426        -0.912037
 H        -1.416363         1.473077         0.945959
 H        -0.017806         1.930244         0.078841
