19
Iteration:  3797
 C        -3.918989         0.712527        -1.278364
 C        -2.497980         0.261179        -1.478174
 C        -1.963371        -0.630160        -2.584470
 C        -2.053821        -1.139588        -1.162486
 C        -0.996685        -1.523407        -0.118403
 C        -0.300804        -0.265799         0.342574
 O         0.431301        -0.319441         1.268929
 C        -0.816876         1.178916        -0.031810
 O        -1.572579         1.318771        -1.274228
 H        -4.724622         0.156003        -1.778009
 H        -4.220320         0.714493        -0.254230
 H        -3.936867         1.803593        -1.557369
 H        -2.744282        -0.902189        -3.282568
 H        -1.015072        -0.338790        -3.048739
 H        -2.864151        -1.868261        -1.125919
 H        -1.587674        -1.807143         0.747230
 H        -0.361432        -2.288192        -0.525297
 H        -1.378133         1.522346         0.957529
 H        -0.133940         1.924446        -0.155771
