19
Iteration:   110
 C        -3.715289         0.549891        -0.667809
 C        -2.483732         0.095917        -1.408156
 C        -2.354617        -1.042032        -2.375435
 C        -1.883350        -1.252936        -0.964740
 C        -0.543796        -1.239690        -0.335010
 C        -0.408821         0.098199         0.330153
 O        -0.309916         0.160075         1.547885
 C        -0.482875         1.196464        -0.684250
 O        -1.518614         1.062120        -1.714363
 H        -4.600044         0.017554        -1.033069
 H        -3.673212         0.258477         0.376606
 H        -3.917287         1.625463        -0.856658
 H        -3.296705        -1.528658        -2.527459
 H        -1.640650        -0.883833        -3.202607
 H        -2.577866        -1.778662        -0.435988
 H        -0.520729        -2.040651         0.365990
 H         0.268646        -1.383393        -1.049045
 H        -0.594523         2.190733        -0.342946
 H         0.439053         1.140161        -1.212889
