19
Iteration:  4031charge 0 multiplicity 1
 C        -4.068986         0.713000        -1.674621
 C        -2.558671         0.237020        -1.484776
 C        -1.925124        -0.568992        -2.570977
 C        -2.261100        -1.148699        -1.126609
 C        -1.140711        -1.378031         0.004069
 C        -0.242458        -0.222113         0.555444
 O         0.856579        -0.404990         1.075623
 C        -0.848050         1.142989         0.093322
 O        -1.622297         1.292471        -1.092934
 H        -4.510224        -0.294793        -1.818705
 H        -4.389525         1.194346        -0.655142
 H        -4.130390         1.312688        -2.653384
 H        -2.625882        -1.034519        -3.344831
 H        -0.994643        -0.287903        -2.978628
 H        -3.141768        -1.788039        -1.006840
 H        -1.639173        -1.878950         0.876942
 H        -0.421548        -2.145772        -0.509083
 H        -1.328761         1.727742         0.885198
 H         0.171249         1.724086         0.097139
