19
Iteration:  1558
 C        -3.816587         0.598807        -0.916138
 C        -2.450944         0.255250        -1.491804
 C        -2.349216        -0.849971        -2.483455
 C        -2.008397        -1.104408        -1.039037
 C        -0.705156        -1.347832        -0.390635
 C        -0.404185        -0.070171         0.421951
 O        -0.023715        -0.137171         1.581322
 C        -0.619463         1.232371        -0.400617
 O        -1.364076         1.102658        -1.604372
 H        -4.578807         1.021972        -1.596324
 H        -4.246949        -0.242221        -0.369394
 H        -3.683830         1.343568        -0.130156
 H        -3.305391        -1.193960        -2.919094
 H        -1.435333        -0.961766        -3.121207
 H        -2.705720        -1.590474        -0.417512
 H        -0.815792        -2.304927         0.115823
 H         0.072593        -1.457780        -1.222523
 H        -1.045528         1.867544         0.375981
 H         0.372661         1.537099        -0.592817
