19
Iteration:  4818
 C        -4.035473         0.607446        -1.693690
 C        -2.503785         0.282412        -1.476954
 C        -1.685721        -0.518659        -2.473503
 C        -2.216152        -1.133744        -1.133753
 C        -1.331183        -1.205418         0.014282
 C        -0.190914        -0.194679         0.314659
 O         0.616736        -0.523685         1.168527
 C        -0.441624         1.152857        -0.391759
 O        -1.927141         1.264447        -0.610498
 H        -4.522792        -0.274625        -2.129732
 H        -4.485994         0.803913        -0.641115
 H        -4.323827         1.296702        -2.393539
 H        -2.200869        -1.008980        -3.322393
 H        -0.689198        -0.290460        -2.520032
 H        -3.102898        -1.834871        -1.182877
 H        -1.889368        -1.463321         0.922481
 H        -0.718313        -2.096607        -0.027203
 H        -0.151729         2.097280        -0.013988
 H         0.091078         1.066311        -1.346094
