19
Iteration:  4243
 C        -3.991939         0.667679        -1.851565
 C        -2.583597         0.335637        -1.414297
 C        -1.860298        -0.647560        -2.410727
 C        -2.253990        -1.117511        -1.033005
 C        -1.072706        -1.455718        -0.010398
 C        -0.249626        -0.260524         0.453490
 O         0.784969        -0.392358         1.079865
 C        -0.659022         1.100515        -0.056676
 O        -1.889125         1.420169        -0.962660
 H        -4.468641         0.082917        -2.626924
 H        -4.675454         0.593445        -0.958455
 H        -4.210700         1.707820        -2.182868
 H        -2.378686        -0.862107        -3.310909
 H        -0.772658        -0.621190        -2.571190
 H        -3.214119        -1.703432        -0.836262
 H        -1.630905        -1.973433         0.820108
 H        -0.450944        -2.267947        -0.367497
 H        -0.524618         1.797824         0.823259
 H         0.232523         1.366554        -0.613445
