19
Iteration:  1260
 C        -3.874115         0.620822        -1.845462
 C        -2.450462         0.237837        -1.457864
 C        -1.777776        -0.864812        -2.286584
 C        -2.288440        -1.173605        -0.878464
 C        -1.265910        -1.230225         0.287512
 C        -0.346217        -0.076512         0.311076
 O         0.826618        -0.368220         0.437013
 C        -0.964821         1.224738         0.256657
 O        -1.618867         1.291773        -1.011497
 H        -3.907447         1.556786        -2.436230
 H        -4.370517        -0.074074        -2.556243
 H        -4.584377         0.689691        -0.932764
 H        -2.213188        -1.382550        -3.145729
 H        -0.738129        -0.652540        -2.391463
 H        -3.133483        -1.852120        -0.781084
 H        -1.881251        -1.205239         1.184760
 H        -0.633345        -2.125008         0.255843
 H        -1.684563         1.359544         1.152020
 H        -0.365069         2.081857         0.345134
