19
Iteration:   589
 C        -3.380073         0.219226         2.673443
 C        -2.478619         0.134037         1.418440
 C        -3.040374        -0.831363         0.346906
 C        -1.753436        -1.194371         1.161625
 C        -0.411479        -1.110999         0.454734
 C        -0.274914         0.115091        -0.349716
 O         0.119201         0.066987        -1.472308
 O        -0.658482         1.313805         0.180546
 C        -1.513277         1.272735         1.335715
 H        -3.521916         1.327964         3.042372
 H        -4.383858         0.012640         2.307088
 H        -2.910188        -0.278344         3.496131
 H        -4.027201        -1.287226         0.564919
 H        -2.855784        -0.595025        -0.683508
 H        -1.711853        -1.976061         2.015389
 H         0.395145        -1.246857         1.172723
 H        -0.213977        -1.833021        -0.342291
 H        -0.787586         1.233540         2.157483
 H        -1.897341         2.335618         1.328756
