19
Iteration:  2344charge 0 multiplicity 1
 C        -3.009884         0.268236         2.970707
 C        -2.551534         0.043272         1.551948
 C        -3.309139        -0.697861         0.481192
 C        -1.930387        -1.269399         1.013897
 C        -0.574179        -1.188740         0.359724
 C        -0.132913         0.101737        -0.437276
 O         0.793368         0.339796        -1.205639
 O        -0.995414         1.123398        -0.186794
 C        -1.769998         1.247895         1.156312
 H        -3.295890         1.311043         3.177422
 H        -3.866469        -0.323328         3.312805
 H        -2.262399         0.098293         3.790894
 H        -4.168397        -1.415880         0.747971
 H        -3.189270        -0.355653        -0.543351
 H        -1.970807        -2.114459         1.727060
 H         0.140180        -1.340126         1.107147
 H        -0.342586        -1.935527        -0.378858
 H        -0.947686         1.420240         1.927429
 H        -2.289646         2.222885         1.128900
