19
Iteration:   336charge 0 multiplicity 1
 C        -2.899885         0.190267         2.995991
 C        -2.347171         0.057578         1.569373
 C        -3.352427        -0.495287         0.616509
 C        -2.063603        -1.261151         0.834435
 C        -0.833270        -1.322889        -0.055062
 C        -0.148601         0.006261        -0.337835
 O         0.949556         0.185800        -0.920095
 O        -0.831411         1.181097         0.018357
 C        -1.869606         1.422153         0.973856
 H        -2.319576         0.935989         3.677520
 H        -3.901129         0.419187         3.194094
 H        -2.741474        -0.712629         3.515245
 H        -4.310080        -0.983130         1.023265
 H        -3.612859        -0.021789        -0.330146
 H        -2.304999        -2.037532         1.457607
 H        -0.065842        -1.939078         0.400823
 H        -1.034312        -1.676943        -1.121351
 H        -1.446965         1.973113         1.809582
 H        -2.719770         2.045053         0.530731
