19
Iteration:  1513charge 0 multiplicity 1
 C        -3.015572         0.311721         2.965372
 C        -2.448355         0.026410         1.550834
 C        -3.124485        -0.543808         0.351907
 C        -1.886674        -1.283598         0.935105
 C        -0.452620        -1.123493         0.456450
 C        -0.205764         0.095207        -0.262158
 O         0.546661         0.095765        -1.260885
 O        -0.995952         1.170941        -0.114060
 C        -1.779667         1.237372         1.145126
 H        -3.294187         1.375308         2.950518
 H        -3.993573        -0.200321         3.120908
 H        -2.498282         0.071638         3.947160
 H        -4.020970        -1.164368         0.596030
 H        -3.243514        -0.175088        -0.657552
 H        -2.143959        -2.234819         1.460157
 H         0.033013        -1.402082         1.318555
 H        -0.109162        -1.795736        -0.349160
 H        -0.942230         1.524639         1.906528
 H        -2.403668         2.129200         0.876950
