19
Iteration:   338charge 0 multiplicity 1
 C        -2.896820         0.174677         2.983955
 C        -2.348105         0.056389         1.566138
 C        -3.366085        -0.510106         0.623053
 C        -2.072345        -1.250114         0.839249
 C        -0.840358        -1.315764        -0.035952
 C        -0.139218         0.004151        -0.350455
 O         0.944214         0.190729        -0.920777
 O        -0.817986         1.192627         0.006732
 C        -1.865115         1.427726         0.981754
 H        -2.258956         0.885097         3.672823
 H        -3.940630         0.481975         3.194721
 H        -2.758906        -0.807652         3.507586
 H        -4.276481        -0.993631         0.959835
 H        -3.634971         0.011999        -0.297415
 H        -2.347988        -2.054549         1.482395
 H        -0.042800        -1.961650         0.475049
 H        -1.058509        -1.707777        -1.065017
 H        -1.409998         2.037908         1.833390
 H        -2.695390         1.968087         0.464541
