19
Iteration:  3250
 C        -3.160702         0.248213         2.827674
 C        -2.359430         0.042115         1.554970
 C        -2.964772        -0.506814         0.251603
 C        -1.943196        -1.203554         0.960468
 C        -0.555746        -1.251385         0.353562
 C        -0.313399         0.076666        -0.311324
 O         0.371133         0.207247        -1.281109
 O        -0.952624         1.154695         0.048608
 C        -1.508585         1.228784         1.354524
 H        -3.851780         1.066727         2.887651
 H        -3.684191        -0.740826         2.968912
 H        -2.472601         0.424009         3.724908
 H        -3.942853        -1.017904         0.122113
 H        -2.597821        -0.077042        -0.641158
 H        -2.309219        -2.147695         1.453349
 H         0.180684        -1.435999         1.154050
 H        -0.428699        -2.006232        -0.374300
 H        -0.666576         1.351010         2.102107
 H        -2.023674         2.222837         1.312622
