19
Iteration:  3094charge 0 multiplicity 1
 C        -3.201772         0.143831         2.940071
 C        -2.503835         0.055761         1.592898
 C        -3.328367        -0.711293         0.526889
 C        -1.957295        -1.262006         1.024891
 C        -0.482253        -1.162354         0.339026
 C        -0.133782         0.143181        -0.440471
 O         0.699992         0.241592        -1.285581
 O        -0.970253         1.247820        -0.168807
 C        -1.538982         1.307164         1.207504
 H        -3.748615        -0.820678         2.819816
 H        -2.656637         0.217284         3.895775
 H        -3.972926         0.874816         2.861086
 H        -4.309275        -1.209230         0.864085
 H        -3.403115        -0.225403        -0.401790
 H        -1.942402        -2.021040         1.791237
 H         0.261930        -1.165147         1.140402
 H        -0.270335        -2.058178        -0.318180
 H        -0.740250         1.042334         1.870131
 H        -1.898479         2.407595         1.334535
