19
Iteration:  3520charge 0 multiplicity 1
 C        -3.028439         0.131084         2.800195
 C        -2.451663         0.159022         1.447686
 C        -3.268742        -0.445971         0.327776
 C        -2.129725        -1.218794         0.911433
 C        -0.822547        -1.199230         0.225679
 C        -0.313526         0.100313        -0.336160
 O         0.525414        -0.018690        -1.231280
 O        -0.650101         1.345748         0.131055
 C        -1.363407         1.196622         1.425224
 H        -3.861884         0.807232         3.035470
 H        -3.284945        -0.902681         2.897172
 H        -2.308383         0.330494         3.550493
 H        -4.153503        -0.833791         0.682020
 H        -3.162320        -0.051096        -0.706214
 H        -2.128350        -2.164043         1.476406
 H        -0.006333        -1.555992         0.890946
 H        -0.845111        -1.825964        -0.667119
 H        -0.595575         1.155135         2.162418
 H        -1.882753         2.172573         1.548840
