19
Iteration:  2564charge 0 multiplicity 1
 C        -3.213254         0.052852         2.763479
 C        -2.548050         0.093278         1.414247
 C        -2.977992        -0.649779         0.199431
 C        -1.856469        -1.220963         1.086044
 C        -0.440371        -1.108762         0.654463
 C        -0.348603         0.093682        -0.333724
 O         0.140819        -0.030051        -1.416833
 O        -0.731698         1.409707         0.048216
 C        -1.426150         1.404440         1.298820
 H        -4.106896         0.549299         3.115584
 H        -3.527751        -0.911827         3.143731
 H        -2.452100         0.328901         3.482391
 H        -3.882927        -1.262670         0.288685
 H        -2.956552        -0.290433        -0.880606
 H        -2.155681        -2.087214         1.639085
 H         0.236769        -0.990039         1.548867
 H        -0.125844        -1.943595         0.065734
 H        -0.640499         1.260821         2.035735
 H        -1.975967         2.338384         1.343917
