19
Iteration:   679charge 0 multiplicity 1
 C        -2.885354         0.006568         2.933890
 C        -2.545009         0.130783         1.479820
 C        -3.266432        -0.640048         0.453920
 C        -1.982084        -1.137165         1.037822
 C        -0.663448        -1.158132         0.416060
 C        -0.215305         0.098928        -0.342180
 O         0.756641         0.157656        -1.100695
 O        -0.972491         1.200032        -0.210014
 C        -1.707139         1.374511         1.016583
 H        -3.572227         0.818320         3.420593
 H        -3.578836        -0.863715         3.160406
 H        -1.865038        -0.013254         3.489963
 H        -4.144459        -1.089331         0.744905
 H        -3.147634        -0.322829        -0.566408
 H        -2.138650        -1.885685         1.745656
 H         0.115705        -1.273056         1.245197
 H        -0.390476        -1.999061        -0.181840
 H        -1.077017         1.589043         1.931836
 H        -2.333283         2.252431         0.908518
