19
Iteration:  4592charge 0 multiplicity 1
 C        -3.168517         0.292573         2.980027
 C        -2.509972         0.048618         1.596209
 C        -3.267399        -0.512463         0.336325
 C        -2.038022        -1.157332         0.932176
 C        -0.617643        -1.302833         0.151098
 C        -0.231066         0.067351        -0.382523
 O         0.549003         0.188331        -1.378420
 O        -0.673238         1.176938         0.141880
 C        -1.464981         1.184951         1.379493
 H        -3.987381         0.996171         2.648842
 H        -3.641846        -0.638822         3.376429
 H        -2.407723         0.760744         3.671748
 H        -4.308912        -0.887590         0.377944
 H        -3.327123         0.191556        -0.469054
 H        -2.248317        -2.171013         1.030982
 H         0.150680        -1.593239         0.879635
 H        -0.632940        -2.061725        -0.647545
 H        -0.755306         1.040769         2.281344
 H        -2.036117         2.106051         1.608211
