19
Iteration:  4777
 C        -3.276837         0.148888         2.787472
 C        -2.382898         0.105145         1.624488
 C        -3.108657        -0.309967         0.399530
 C        -1.947291        -1.208201         0.931346
 C        -0.604973        -1.255174         0.196898
 C        -0.263250         0.027259        -0.399717
 O         0.370388         0.110230        -1.437835
 O        -0.629845         1.141236         0.227973
 C        -1.520686         1.208262         1.423066
 H        -3.874715         1.101076         2.683466
 H        -4.085221        -0.576728         2.999994
 H        -2.792136         0.384596         3.779537
 H        -4.075890        -0.749346         0.415167
 H        -2.987424         0.361703        -0.428707
 H        -2.217779        -2.082510         1.461688
 H         0.132296        -1.547591         0.929308
 H        -0.650601        -2.066819        -0.549595
 H        -0.777061         1.411008         2.210785
 H        -2.019884         2.177796         1.187614
