19
Iteration:  1991
 C        -3.246442         0.350022         2.856589
 C        -2.430370        -0.036553         1.609145
 C        -3.108253        -0.793258         0.480337
 C        -1.827554        -1.298097         1.085667
 C        -0.590468        -1.186057         0.263719
 C        -0.284401         0.120018        -0.447323
 O         0.648184         0.209405        -1.241992
 O        -0.977997         1.290158        -0.099670
 C        -1.569833         1.294450         1.227143
 H        -4.221689         0.802519         2.603400
 H        -3.365449        -0.586889         3.423201
 H        -2.715323         1.082419         3.499300
 H        -4.008721        -1.198408         0.927251
 H        -3.165709        -0.188006        -0.436346
 H        -1.962759        -2.196513         1.645243
 H         0.299973        -1.396181         1.006228
 H        -0.745014        -2.016188        -0.523687
 H        -0.768639         1.126505         1.929141
 H        -2.141599         2.211742         1.370703
