19
Iteration:  4369charge 0 multiplicity 1
 C        -3.158961         0.157553         2.859151
 C        -2.421045         0.087874         1.535519
 C        -3.093501        -0.306481         0.264085
 C        -2.041289        -1.244394         0.943725
 C        -0.640278        -1.300846         0.277188
 C        -0.293912         0.021236        -0.392557
 O         0.467381         0.158524        -1.345826
 O        -0.790452         1.212455         0.179524
 C        -1.448118         1.225801         1.427727
 H        -4.128404         0.480635         2.636664
 H        -3.032720        -0.804809         3.243473
 H        -2.641211         0.961293         3.354244
 H        -4.159088        -0.635781         0.365211
 H        -2.741555         0.065074        -0.685986
 H        -2.553067        -2.110022         1.453409
 H         0.205663        -1.639244         0.853842
 H        -0.615509        -2.012739        -0.568919
 H        -0.713764         1.000981         2.264226
 H        -2.048235         2.110009         1.656526
