19
Iteration:  3659
 C        -3.228160         0.203974         2.919615
 C        -2.409777         0.044640         1.659185
 C        -3.241688        -0.234266         0.254443
 C        -2.099342        -1.113638         0.793326
 C        -0.596159        -1.297945         0.225820
 C        -0.143177        -0.037407        -0.373074
 O         0.321003         0.076775        -1.462946
 O        -0.560593         1.118994         0.296096
 C        -1.433075         1.203899         1.416081
 H        -3.538602        -0.764012         3.417086
 H        -2.543275         0.688588         3.591595
 H        -4.073176         0.815434         2.596998
 H        -4.228511        -0.507653         0.473529
 H        -2.978122         0.620210        -0.406451
 H        -2.347736        -2.191025         1.050878
 H        -0.131271        -1.576945         1.162805
 H        -0.579982        -2.053313        -0.609869
 H        -0.832697         1.500082         2.344385
 H        -1.852915         2.133824         1.192131
