19
Iteration:   126charge 0 multiplicity 1
 C        -3.332816         0.268645         2.661103
 C        -2.343868         0.065405         1.586555
 C        -2.922512        -0.366590         0.222298
 C        -1.941532        -1.213388         1.007700
 C        -0.554815        -1.253152         0.356177
 C        -0.289796         0.008598        -0.355155
 O         0.194741         0.167319        -1.482291
 O        -0.731328         1.091509         0.276974
 C        -1.400469         1.208180         1.515364
 H        -3.839756        -0.738479         2.825876
 H        -2.888315         0.647986         3.628103
 H        -4.099741         0.987288         2.299677
 H        -4.037056        -0.589960         0.201846
 H        -2.584635         0.005615        -0.761216
 H        -2.322102        -2.180387         1.487303
 H         0.212824        -1.344671         1.101709
 H        -0.584046        -2.038128        -0.415628
 H        -0.689613         1.325058         2.378512
 H        -1.915657         2.204308         1.502001
