19
Iteration:  3411charge 0 multiplicity 1
 C        -3.235744         0.093015         2.790598
 C        -2.444414         0.229673         1.505903
 C        -3.186932        -0.493013         0.333348
 C        -2.042412        -1.206519         0.938403
 C        -0.659365        -1.161505         0.330129
 C        -0.253740         0.141853        -0.394716
 O         0.427649         0.014658        -1.420194
 O        -0.727006         1.309016         0.154991
 C        -1.333433         1.170816         1.423373
 H        -2.486559         0.005969         3.661527
 H        -3.742616         1.067278         3.032823
 H        -3.908030        -0.762091         2.804989
 H        -4.164898        -0.988459         0.489653
 H        -3.130929        -0.252751        -0.700823
 H        -2.237405        -2.015418         1.711236
 H        -0.020301        -1.383822         1.302094
 H        -0.312555        -1.919866        -0.433224
 H        -0.548664         0.654732         2.126761
 H        -1.550066         2.169010         2.002167
