19
Iteration:  3269charge 0 multiplicity 1
 C        -3.273954         0.193529         2.848004
 C        -2.473762         0.026533         1.538399
 C        -3.050383        -0.427598         0.306821
 C        -1.897097        -1.260109         0.998893
 C        -0.439485        -1.264121         0.380746
 C        -0.222771         0.081893        -0.373217
 O         0.403937         0.124673        -1.404853
 O        -0.941587         1.268283         0.077803
 C        -1.445864         1.225624         1.385210
 H        -4.261001         0.653264         2.445060
 H        -3.481601        -0.711768         3.508060
 H        -2.751362         0.977156         3.420983
 H        -4.056022        -0.741164         0.445016
 H        -2.866628         0.166335        -0.617666
 H        -2.237214        -2.224681         1.457739
 H         0.295039        -1.631755         1.054850
 H        -0.380619        -1.995454        -0.463196
 H        -0.696945         1.213095         2.147867
 H        -2.086243         2.135991         1.699649
