19
Iteration:  3501charge 0 multiplicity 1
 C        -3.163196         0.042169         2.903536
 C        -2.435663         0.132240         1.522934
 C        -3.252942        -0.456084         0.338528
 C        -2.131532        -1.200111         1.010616
 C        -0.822512        -1.222078         0.182116
 C        -0.282870         0.070763        -0.443216
 O         0.600028         0.050246        -1.327384
 O        -0.613171         1.284149         0.138008
 C        -1.384302         1.313755         1.349848
 H        -3.444240         1.053324         3.198410
 H        -4.009293        -0.728945         2.985089
 H        -2.477601        -0.260661         3.753942
 H        -4.340242        -0.529554         0.504948
 H        -2.951153        -0.136439        -0.679972
 H        -2.432512        -2.084692         1.583439
 H        -0.016500        -1.417372         1.028079
 H        -0.697707        -1.996306        -0.566358
 H        -0.701021         1.224640         2.297589
 H        -1.797812         2.396517         1.435283
