19
Iteration:  2632charge 0 multiplicity 1
 C        -3.430398         0.392539         2.867790
 C        -2.282833        -0.030977         1.730328
 C        -3.034898        -0.620718         0.400474
 C        -1.795136        -1.336879         1.090638
 C        -0.433931        -1.207238         0.335724
 C        -0.139634         0.131578        -0.366497
 O         0.424920         0.203925        -1.473116
 O        -0.942792         1.178947         0.030802
 C        -1.619618         1.226034         1.251109
 H        -3.905903         1.375969         2.587926
 H        -4.342285        -0.220416         2.899463
 H        -3.008438         0.280637         3.825307
 H        -4.100758        -0.956603         0.383519
 H        -2.853262        -0.165677        -0.483867
 H        -1.850733        -2.322795         1.626903
 H         0.408840        -1.471608         1.002601
 H        -0.388290        -1.870123        -0.514816
 H        -1.080894         1.752750         2.033173
 H        -2.511633         1.854076         0.890101
