19
Iteration:  4897
 C        -3.273563         0.111492         2.833510
 C        -2.452940         0.134217         1.580683
 C        -3.081603        -0.346283         0.251041
 C        -1.971573        -1.121524         0.973243
 C        -0.610155        -1.257510         0.325777
 C        -0.226315         0.016284        -0.400971
 O         0.337556         0.041138        -1.504163
 O        -0.761308         1.211276         0.214735
 C        -1.347885         1.250374         1.483041
 H        -3.972682         0.875166         2.743164
 H        -3.913545        -0.779299         2.743446
 H        -2.945860         0.131960         3.831956
 H        -4.035697        -0.914077         0.300440
 H        -2.777143         0.159825        -0.648806
 H        -2.367267        -2.030674         1.460889
 H         0.195101        -1.382419         1.123039
 H        -0.495946        -2.111532        -0.416782
 H        -0.475711         1.251874         2.243380
 H        -1.626651         2.353196         1.579578
