19
Iteration:  2360charge 0 multiplicity 1
 C        -2.972006         0.163911         3.016628
 C        -2.552832         0.093512         1.499004
 C        -3.274751        -0.864591         0.423076
 C        -1.956568        -1.159409         0.997173
 C        -0.569201        -1.153948         0.324121
 C        -0.199109         0.145432        -0.337175
 O         0.700312         0.173481        -1.113310
 O        -0.984640         1.285713        -0.168142
 C        -1.636628         1.335864         1.061537
 H        -3.478451         1.151639         3.133487
 H        -3.550410        -0.737738         3.266984
 H        -2.037047         0.154443         3.566577
 H        -4.103299        -1.340674         0.846646
 H        -3.582175        -0.462587        -0.544780
 H        -2.042583        -2.021285         1.647996
 H         0.225358        -1.240765         1.172129
 H        -0.445439        -2.083279        -0.292450
 H        -0.936466         1.375955         1.860827
 H        -2.329835         2.172352         0.914622
