19
Iteration:  4838charge 0 multiplicity 1
 C        -3.217177         0.141601         2.832211
 C        -2.524755         0.184362         1.463773
 C        -3.106591        -0.412745         0.208283
 C        -1.978827        -1.185810         0.885278
 C        -0.555463        -1.234363         0.423768
 C        -0.332195         0.072461        -0.352218
 O         0.259187         0.048644        -1.470974
 O        -0.638755         1.218720         0.217846
 C        -1.339403         1.217937         1.495468
 H        -3.648202         1.196707         2.936347
 H        -4.017261        -0.607002         2.783781
 H        -2.471928        -0.135914         3.615150
 H        -4.045172        -0.842890         0.506026
 H        -3.105551        -0.128092        -0.874702
 H        -2.357840        -1.970593         1.546353
 H         0.209373        -1.214216         1.258692
 H        -0.243573        -1.992160        -0.284535
 H        -0.633949         0.820062         2.230259
 H        -1.725734         2.233796         1.736352
