19
Iteration:  4694
 C        -3.058154         0.215301         3.025569
 C        -2.509292         0.035673         1.526821
 C        -3.297936        -0.376917         0.326875
 C        -2.148857        -1.242332         0.784509
 C        -0.646369        -1.246338         0.304245
 C        -0.181357         0.047053        -0.374741
 O         0.561286         0.156752        -1.279864
 O        -0.769237         1.223439         0.095613
 C        -1.457577         1.195415         1.279053
 H        -3.321238         1.227932         3.076280
 H        -3.835091        -0.514297         3.107619
 H        -2.262556        -0.060714         3.662884
 H        -4.292870        -0.835119         0.565922
 H        -3.055818         0.252816        -0.555147
 H        -2.273675        -2.338433         1.015274
 H         0.015658        -1.327250         1.234568
 H        -0.371194        -2.091126        -0.372602
 H        -0.620803         0.928495         2.077426
 H        -1.825385         2.180437         1.551911
