19
Iteration:   230
 C        -2.909932         0.159051         3.109415
 C        -2.500951         0.005768         1.603663
 C        -3.261643        -0.319975         0.357459
 C        -2.080336        -1.181582         0.921631
 C        -0.837575        -1.260033         0.078752
 C        -0.135337         0.026610        -0.360467
 O         0.860842         0.141235        -1.008958
 O        -0.883934         1.140701        -0.050540
 C        -1.700154         1.287726         1.122192
 H        -3.982117        -0.202711         3.073075
 H        -2.301281        -0.426376         3.846581
 H        -2.982280         1.252112         3.382092
 H        -4.274563        -0.707638         0.219012
 H        -2.867186         0.306909        -0.380806
 H        -2.388743        -2.199490         1.282918
 H         0.030646        -1.903755         0.421653
 H        -1.118814        -1.757582        -0.846265
 H        -0.981834         1.465312         1.984972
 H        -2.405114         2.086617         0.873557
