19
Iteration:  1418
 C        -3.159101         0.342006         2.857151
 C        -2.469467         0.028185         1.596195
 C        -3.080705        -0.669767         0.414936
 C        -1.835929        -1.267446         1.093510
 C        -0.539820        -1.144845         0.377807
 C        -0.339823         0.068783        -0.451258
 O         0.478186         0.115926        -1.391746
 O        -0.726684         1.151855         0.132413
 C        -1.757741         1.321750         1.153122
 H        -4.125327         0.745198         2.561345
 H        -3.345742        -0.537686         3.484033
 H        -2.675772         1.103460         3.469876
 H        -4.093056        -1.176381         0.399088
 H        -2.930726        -0.085587        -0.515932
 H        -1.915985        -2.220172         1.626430
 H         0.412699        -1.023124         1.101712
 H        -0.395382        -2.034731        -0.234097
 H        -1.157892         1.686605         1.965689
 H        -2.365816         2.144032         0.682395
