19
Iteration:   682charge 0 multiplicity 1
 C        -2.874504         0.015895         2.976098
 C        -2.536018         0.119272         1.471028
 C        -3.261575        -0.637414         0.456690
 C        -1.995764        -1.159648         1.020479
 C        -0.676535        -1.134311         0.420448
 C        -0.203277         0.086472        -0.376243
 O         0.765426         0.162216        -1.086820
 O        -0.948158         1.214249        -0.204551
 C        -1.738957         1.372349         1.018492
 H        -3.530487         0.721261         3.372753
 H        -3.471801        -0.867580         3.128914
 H        -1.916262         0.079042         3.506855
 H        -4.224735        -1.137185         0.766510
 H        -3.188603        -0.291246        -0.576462
 H        -2.160790        -1.911081         1.748633
 H         0.077631        -1.318086         1.244564
 H        -0.508247        -2.066189        -0.147974
 H        -1.110374         1.640956         1.889040
 H        -2.363469         2.217777         0.765328
