19
Iteration:   401charge 0 multiplicity 1
 C        -2.968825         0.185013         2.972749
 C        -2.464951         0.130446         1.455777
 C        -3.280219        -0.627614         0.383323
 C        -1.967189        -1.201685         0.970933
 C        -0.689073        -1.283307         0.227760
 C        -0.211254         0.074279        -0.316965
 O         0.652864         0.136743        -1.101269
 O        -0.786815         1.256805         0.040338
 C        -1.737617         1.345978         1.062678
 H        -2.529308        -0.726745         3.494869
 H        -2.511518         0.958676         3.549370
 H        -4.005172         0.189186         3.020136
 H        -4.212869        -1.190096         0.658139
 H        -3.232346        -0.209413        -0.661088
 H        -2.051561        -1.999315         1.650266
 H         0.104214        -1.628786         0.866363
 H        -0.728904        -1.980915        -0.655796
 H        -1.209502         1.641282         1.949958
 H        -2.407251         2.213398         0.917599
