19
Iteration:  2540charge 0 multiplicity 1
 C        -3.238046         0.109939         2.762367
 C        -2.409628         0.031422         1.573594
 C        -2.959809        -0.441279         0.305266
 C        -1.824126        -1.167842         0.924366
 C        -0.331843        -1.026596         0.615687
 C        -0.203217         0.091306        -0.350059
 O         0.121389        -0.099606        -1.532866
 O        -0.784557         1.237681         0.099895
 C        -1.668895         1.288820         1.355842
 H        -4.102890         0.691929         2.723717
 H        -3.771827        -0.783669         3.088278
 H        -2.740895         0.421694         3.709774
 H        -3.908186        -0.972383         0.178502
 H        -2.721172         0.073008        -0.748866
 H        -2.016108        -2.020815         1.567347
 H         0.013094        -0.881178         1.706478
 H         0.149280        -1.941455         0.172051
 H        -1.029875         1.622239         2.156660
 H        -2.400565         1.983232         1.007835
