19
Iteration:  2853
 C        -3.103953         0.122381         2.967802
 C        -2.389759         0.080693         1.564930
 C        -2.999003        -0.622732         0.294066
 C        -1.833942        -1.264449         1.048363
 C        -0.497789        -1.227722         0.390876
 C        -0.297849         0.052430        -0.371712
 O         0.478475         0.130862        -1.275792
 O        -0.881188         1.288513        -0.032964
 C        -1.835827         1.414721         1.160772
 H        -4.144274         0.626346         2.928986
 H        -3.170321        -0.962840         3.186913
 H        -2.564704         0.684362         3.705067
 H        -4.069397        -1.021186         0.343917
 H        -2.800016        -0.231248        -0.655219
 H        -2.156230        -2.059649         1.678818
 H         0.166652        -1.258318         1.323168
 H        -0.211877        -2.081528        -0.323251
 H        -1.256196         1.755961         2.016091
 H        -2.613468         2.213171         0.958113
