19
Iteration:  4662charge 0 multiplicity 1
 C        -3.089224         0.078981         2.992092
 C        -2.492103         0.090718         1.614115
 C        -3.164037        -0.330609         0.335519
 C        -2.017363        -1.163974         0.900389
 C        -0.711278        -1.253276         0.209176
 C        -0.172556         0.026362        -0.420612
 O         0.620994         0.089188        -1.307299
 O        -0.849127         1.151163         0.093047
 C        -1.548148         1.332424         1.313162
 H        -3.381325         1.090465         3.324795
 H        -3.975391        -0.528963         3.008620
 H        -2.409928        -0.372320         3.667774
 H        -4.277676        -0.498160         0.267406
 H        -2.830467         0.155208        -0.633820
 H        -2.405234        -2.133836         1.399480
 H         0.178977        -1.441699         0.912524
 H        -0.640275        -2.030469        -0.593466
 H        -0.885709         1.317693         2.282578
 H        -2.144772         2.264121         1.352336
