19
Iteration:  4879
 C        -3.439712         0.092076         2.813785
 C        -2.359753         0.119851         1.689570
 C        -2.942325        -0.206894         0.332734
 C        -1.958437        -1.236615         0.915190
 C        -0.509509        -1.242590         0.353842
 C        -0.332864        -0.010982        -0.438242
 O         0.304918         0.058758        -1.474560
 O        -0.697888         1.201412         0.080890
 C        -1.426540         1.220118         1.479352
 H        -4.031353         1.043427         3.012882
 H        -4.131770        -0.758740         2.955525
 H        -2.809371         0.042786         3.776617
 H        -4.016801        -0.476890         0.380096
 H        -2.623021         0.466024        -0.540064
 H        -2.407350        -2.206361         1.326735
 H         0.136634        -1.399384         1.179405
 H        -0.443201        -2.109767        -0.282593
 H        -0.650604         1.267202         2.234051
 H        -1.866349         2.183251         1.381861
