19
Iteration:   830
 C        -2.484280         0.496744         2.908344
 C        -2.507912         0.056300         1.438122
 C        -3.425611        -1.030057         0.885174
 C        -1.921893        -1.221366         0.833085
 C        -1.051613        -1.100829        -0.414957
 C        -0.166994         0.094925        -0.242382
 O         1.015606         0.248235        -0.612887
 O        -0.742932         1.186713         0.314309
 C        -2.203255         1.196833         0.588569
 H        -2.945504         1.469485         2.858649
 H        -2.973429        -0.225271         3.541012
 H        -1.518141         0.624702         3.339499
 H        -4.044187        -1.634436         1.545801
 H        -3.965106        -0.765354         0.026936
 H        -1.502092        -1.928975         1.531748
 H        -0.304383        -1.912390        -0.635217
 H        -1.658170        -0.922157        -1.369346
 H        -2.240031         2.134627         1.253440
 H        -2.815644         1.325655        -0.344034
