19
Iteration:   615charge 0 multiplicity 1
 C        -3.428506         0.369277         2.788916
 C        -2.446382         0.031067         1.632836
 C        -3.017025        -0.705266         0.409155
 C        -1.828688        -1.320039         1.096999
 C        -0.400452        -1.171066         0.478206
 C        -0.254426         0.088332        -0.490898
 O         0.431142         0.227592        -1.522922
 O        -0.876717         1.221182         0.050873
 C        -1.579714         1.171785         1.353606
 H        -3.349998         1.404432         2.988297
 H        -4.449994         0.302779         2.412912
 H        -3.012137        -0.005491         3.749800
 H        -3.951476        -1.171232         0.607799
 H        -2.979751        -0.313489        -0.614975
 H        -1.934301        -2.218722         1.577848
 H         0.345551        -1.153117         1.369472
 H        -0.090624        -1.990009        -0.163508
 H        -0.682065         1.326416         1.984347
 H        -2.069572         2.103980         1.295855
