19
Iteration:  1043
 C        -2.573137         0.266771         3.009680
 C        -2.510262         0.124354         1.430591
 C        -3.475653        -0.861758         0.779589
 C        -1.992868        -1.231402         0.953506
 C        -0.878297        -1.178519        -0.114244
 C        -0.159211         0.177182        -0.214630
 O         0.851292         0.208691        -0.825950
 O        -0.632447         1.328288         0.197657
 C        -2.104161         1.193290         0.514980
 H        -3.347448         1.007742         3.315956
 H        -2.751557        -0.706681         3.530544
 H        -1.593103         0.599851         3.509852
 H        -4.285586        -1.498740         1.275069
 H        -3.795426        -0.632066        -0.243489
 H        -2.001080        -2.076406         1.722979
 H        -0.094867        -1.829387         0.198601
 H        -1.099318        -1.557776        -1.115592
 H        -2.353533         2.107987         0.967308
 H        -2.600251         1.163144        -0.510767
