19
Iteration:   637charge 0 multiplicity 1
 C        -3.282901         0.275735         2.902936
 C        -2.439987         0.007881         1.649669
 C        -3.016087        -0.599479         0.368919
 C        -1.876941        -1.274835         1.128399
 C        -0.486482        -1.116370         0.383702
 C        -0.251922         0.084208        -0.408557
 O         0.571582         0.224926        -1.315619
 O        -1.070518         1.159163        -0.141537
 C        -1.553779         1.169793         1.221458
 H        -3.344998         1.313904         3.144602
 H        -4.332072         0.154018         2.659240
 H        -2.755325        -0.105688         3.797277
 H        -3.943442        -1.104726         0.365683
 H        -2.791426        -0.061283        -0.557079
 H        -2.087350        -2.184276         1.547914
 H         0.262288        -1.061393         1.263504
 H        -0.195738        -2.074669        -0.011208
 H        -0.618687         1.368193         1.808474
 H        -2.081790         2.081086         1.218708
