19
Iteration:  2687
 C        -2.989928         0.024087         2.854370
 C        -2.549316         0.126344         1.442258
 C        -3.243390        -0.777120         0.433296
 C        -1.933019        -1.195624         1.100982
 C        -0.673263        -1.021077         0.460282
 C        -0.192170         0.192513        -0.337914
 O         0.647288         0.049238        -1.231078
 O        -0.895802         1.335973        -0.134655
 C        -1.633786         1.318885         1.113981
 H        -3.836923         0.694012         3.235577
 H        -3.236237        -1.016423         3.087667
 H        -2.315696         0.391190         3.605643
 H        -4.104101        -1.273416         0.789613
 H        -3.325863        -0.450878        -0.587034
 H        -1.989067        -2.122727         1.727760
 H         0.136752        -1.210463         1.209356
 H        -0.496771        -1.786814        -0.312177
 H        -0.967718         1.267382         1.966430
 H        -2.072408         2.372729         1.199306
