19
Iteration:  3761
 C        -3.256694         0.299187         2.849508
 C        -2.431593         0.014112         1.617447
 C        -3.077529        -0.248004         0.286907
 C        -2.091673        -1.231918         0.854927
 C        -0.647576        -1.257980         0.325912
 C        -0.233665        -0.023413        -0.442478
 O         0.360170         0.133389        -1.492393
 O        -0.637228         1.172434         0.253415
 C        -1.429725         1.048503         1.458102
 H        -3.953149        -0.502515         3.045447
 H        -2.531541         0.472248         3.697492
 H        -3.670164         1.312717         2.758460
 H        -4.144771        -0.542102         0.260120
 H        -2.730023         0.650226        -0.242348
 H        -2.432218        -2.195337         1.142598
 H         0.074288        -1.231543         1.112404
 H        -0.427055        -2.188685        -0.120116
 H        -0.632777         1.073004         2.215515
 H        -1.860651         2.081314         1.433889
