19
Iteration:  2470charge 0 multiplicity 1
 C        -3.269890         0.258765         2.694325
 C        -2.375643         0.085058         1.455607
 C        -3.080374        -0.895127         0.420918
 C        -1.843074        -1.305408         1.169474
 C        -0.582549        -1.169297         0.413529
 C        -0.364840         0.199262        -0.381591
 O         0.350116         0.114381        -1.318356
 O        -0.820956         1.446309        -0.006175
 C        -1.430237         1.235362         1.281810
 H        -3.899354         1.193065         2.796926
 H        -4.060793        -0.525052         2.865555
 H        -2.643034         0.248442         3.580245
 H        -3.996781        -1.346265         0.642583
 H        -2.940995        -0.813817        -0.595142
 H        -1.736049        -1.873843         2.107142
 H         0.352965        -1.131639         0.996061
 H        -0.427388        -1.928120        -0.374125
 H        -0.594040         1.125291         1.993425
 H        -1.930183         2.222042         1.412532
