19
Iteration:  1473
 C        -3.274126         0.176940         2.850105
 C        -2.478404         0.189419         1.536703
 C        -3.104458        -0.605347         0.504679
 C        -1.851526        -1.110405         1.167199
 C        -0.584266        -1.211294         0.356075
 C        -0.328757         0.081626        -0.487237
 O         0.647005         0.189208        -1.253301
 O        -0.976971         1.146036        -0.145120
 C        -1.502895         1.212212         1.208532
 H        -3.956570         1.017217         2.844998
 H        -3.798427        -0.789787         2.916827
 H        -2.554327         0.172131         3.652963
 H        -4.072716        -1.117806         0.849248
 H        -2.880405        -0.694344        -0.559023
 H        -1.803708        -1.816949         1.982612
 H         0.372831        -1.183070         1.029197
 H        -0.613567        -2.111177        -0.237507
 H        -0.707016         1.188524         1.874241
 H        -1.978876         2.216752         1.267586
