19
Iteration:  4111
 C        -3.211453         0.168675         2.821820
 C        -2.557098         0.091929         1.520239
 C        -3.176416        -0.391981         0.227347
 C        -2.093069        -1.152446         0.901823
 C        -0.680469        -1.123764         0.426577
 C        -0.184799         0.044939        -0.417274
 O         0.346459         0.120458        -1.502209
 O        -0.560825         1.218095         0.258106
 C        -1.340966         1.069479         1.425809
 H        -4.252598        -0.196769         2.865327
 H        -2.755121        -0.406547         3.731739
 H        -3.366658         1.081138         3.436666
 H        -4.127157        -0.838888         0.305967
 H        -2.830934         0.024559        -0.741146
 H        -2.188178        -2.179861         1.406011
 H        -0.004559        -1.233974         1.268678
 H        -0.463908        -1.921649        -0.256886
 H        -0.623344         0.726031         2.289740
 H        -1.787319         2.088546         1.602817
