19
Iteration:  2806charge 0 multiplicity 1
 C        -3.221051         0.292550         2.917353
 C        -2.544386         0.065704         1.554199
 C        -3.234619        -0.885506         0.594142
 C        -1.883455        -1.299304         1.111306
 C        -0.616550        -1.194246         0.205135
 C        -0.146161         0.188601        -0.420423
 O         0.741501         0.296630        -1.262489
 O        -0.915089         1.281645        -0.111822
 C        -1.590995         1.230274         1.164708
 H        -3.944702         1.111001         2.874302
 H        -3.688026        -0.653822         3.135942
 H        -2.616080         0.608572         3.787769
 H        -4.095331        -1.404461         0.857929
 H        -3.268188        -0.635700        -0.494692
 H        -1.990218        -2.118047         1.862042
 H         0.306794        -1.530131         0.814503
 H        -0.688685        -1.902654        -0.612078
 H        -0.887257         1.388407         1.955983
 H        -2.259390         2.153432         1.171557
