19
Iteration:  2672
 C        -3.141032         0.106565         2.909146
 C        -2.544195         0.167867         1.445366
 C        -3.157364        -0.821540         0.368954
 C        -1.904052        -1.155201         1.099522
 C        -0.547159        -1.162201         0.329845
 C        -0.307425         0.122473        -0.389156
 O         0.588309         0.112695        -1.227794
 O        -0.913479         1.294756        -0.094693
 C        -1.566126         1.373632         1.252215
 H        -3.877548         0.897288         3.080503
 H        -3.482599        -0.933461         3.089466
 H        -2.222426         0.264107         3.564531
 H        -4.159351        -1.245397         0.810805
 H        -2.895399        -0.777392        -0.707498
 H        -1.955303        -1.743471         1.993454
 H         0.314207        -1.248410         1.108292
 H        -0.440722        -2.036753        -0.305292
 H        -0.722039         1.486008         1.961274
 H        -2.116302         2.282971         1.252168
