19
Iteration:  4757charge 0 multiplicity 1
 C        -3.344922         0.142113         2.889940
 C        -2.392351         0.151447         1.701832
 C        -3.091943        -0.376568         0.291069
 C        -1.973858        -1.181372         1.000670
 C        -0.665411        -1.316475         0.197409
 C        -0.171437        -0.005550        -0.439611
 O         0.456723         0.118295        -1.466789
 O        -0.712001         1.196960         0.158864
 C        -1.427418         1.314815         1.454022
 H        -4.228572         0.912517         2.985891
 H        -3.788449        -0.906430         2.911350
 H        -2.819708         0.131254         3.917757
 H        -4.160839        -0.662392         0.373909
 H        -2.878404         0.097647        -0.667739
 H        -2.391534        -2.131745         1.336933
 H         0.063267        -1.842089         0.780923
 H        -0.931363        -2.027118        -0.615815
 H        -0.686137         1.481997         2.226681
 H        -2.036930         2.201646         1.420093
