19
Iteration:  1990
 C        -3.253386         0.350854         2.851678
 C        -2.423687        -0.035809         1.608721
 C        -3.114853        -0.787245         0.487776
 C        -1.831618        -1.294402         1.096762
 C        -0.582628        -1.191199         0.261626
 C        -0.281795         0.130322        -0.443473
 O         0.651651         0.206517        -1.243482
 O        -0.980834         1.295250        -0.106432
 C        -1.568369         1.287885         1.227088
 H        -4.268556         0.805439         2.624104
 H        -3.362590        -0.599375         3.402409
 H        -2.716819         1.070564         3.511889
 H        -4.026663        -1.220045         0.941202
 H        -3.197560        -0.213262        -0.425067
 H        -1.938741        -2.244714         1.605795
 H         0.307951        -1.440441         1.008765
 H        -0.744081        -1.993804        -0.550159
 H        -0.748712         1.103908         1.919227
 H        -2.120914         2.219981         1.359686
