19
Iteration:  1774charge 0 multiplicity 1
 C        -3.353365         0.311579         2.762555
 C        -2.449920         0.077210         1.484501
 C        -3.145483        -0.790442         0.412952
 C        -1.848737        -1.217896         1.158081
 C        -0.396427        -1.084479         0.466911
 C        -0.206206         0.203340        -0.462032
 O         0.379626         0.065098        -1.517102
 O        -0.837748         1.323690         0.045161
 C        -1.503815         1.170442         1.390351
 H        -4.187938         0.978361         2.558259
 H        -3.874440        -0.656316         2.979356
 H        -2.894895         0.665166         3.734435
 H        -3.921035        -1.541376         0.635812
 H        -3.162895        -0.708587        -0.717332
 H        -1.959757        -2.025931         1.852753
 H         0.331456        -1.039353         1.216466
 H        -0.237142        -2.018140        -0.100847
 H        -0.758501         0.941313         2.192007
 H        -1.920648         2.191875         1.516592
