19
Iteration:  4223charge 0 multiplicity 1
 C        -3.202541         0.197720         2.876813
 C        -2.535827         0.070121         1.543196
 C        -3.371746        -0.388872         0.421986
 C        -2.173551        -1.261084         0.902720
 C        -0.750867        -1.217944         0.202735
 C        -0.163264         0.067913        -0.463877
 O         0.653606         0.212894        -1.312457
 O        -0.585169         1.258436         0.139876
 C        -1.370027         1.018108         1.376111
 H        -3.066313        -0.812453         3.291245
 H        -2.551366         0.795914         3.497381
 H        -4.207182         0.511346         2.668472
 H        -4.332818        -0.728927         0.804367
 H        -3.482768         0.295523        -0.390218
 H        -2.592206        -2.141138         1.309214
 H         0.001005        -1.344751         0.962617
 H        -0.489684        -1.988509        -0.540107
 H        -0.647417         0.963165         2.222905
 H        -1.664560         2.116693         1.503710
