19
Iteration:  4425charge 0 multiplicity 1
 C        -3.299611         0.090719         2.802656
 C        -2.456438         0.108740         1.508401
 C        -3.126938        -0.454081         0.321646
 C        -2.006025        -1.165879         1.040544
 C        -0.693959        -1.154506         0.346360
 C        -0.200250        -0.004930        -0.428095
 O         0.371228         0.141597        -1.537300
 O        -0.618631         1.210880         0.202842
 C        -1.409397         1.229260         1.489354
 H        -3.796127         1.032723         2.808654
 H        -4.018534        -0.723986         2.650254
 H        -2.628652        -0.174175         3.618113
 H        -4.142603        -0.703005         0.455286
 H        -2.979786        -0.024937        -0.646358
 H        -2.257004        -2.075359         1.625118
 H         0.046837        -1.095040         1.165479
 H        -0.459799        -2.024438        -0.248491
 H        -0.572889         1.100416         2.228819
 H        -1.682284         2.294643         1.606627
