19
Iteration:  4747
 C        -3.320769         0.067346         2.929518
 C        -2.436122         0.181498         1.590147
 C        -3.069803        -0.402115         0.330984
 C        -2.069495        -1.182177         1.018159
 C        -0.694428        -1.302989         0.168159
 C        -0.247121         0.036992        -0.391875
 O         0.482294         0.116375        -1.403370
 O        -0.688198         1.219110         0.081702
 C        -1.394294         1.285535         1.468748
 H        -4.158816         0.902071         2.981951
 H        -3.902650        -0.894889         2.960893
 H        -2.643279         0.253053         3.818183
 H        -4.150383        -0.715341         0.272331
 H        -2.684393         0.127395        -0.551914
 H        -2.145697        -2.083049         1.668625
 H         0.105848        -1.650774         0.817586
 H        -0.800664        -2.005280        -0.698841
 H        -0.552480         1.285255         2.096253
 H        -1.747402         2.243820         1.302501
