19
Iteration:  1773
 C        -3.353437         0.302097         2.755202
 C        -2.450903         0.072327         1.481272
 C        -3.148748        -0.794501         0.415411
 C        -1.849863        -1.217226         1.158628
 C        -0.400213        -1.080266         0.477456
 C        -0.210104         0.206820        -0.470096
 O         0.380374         0.056344        -1.517595
 O        -0.833616         1.334098         0.053106
 C        -1.504544         1.170204         1.383046
 H        -4.171491         1.003794         2.558355
 H        -3.856524        -0.657060         3.016685
 H        -2.852380         0.630534         3.704692
 H        -3.938469        -1.514376         0.637443
 H        -3.172901        -0.664725        -0.732157
 H        -1.941117        -2.026530         1.874866
 H         0.313816        -1.027231         1.197730
 H        -0.206866        -2.022777        -0.096710
 H        -0.767138         0.965644         2.220025
 H        -1.905016         2.196212         1.516018
