19
Iteration:   420charge 0 multiplicity 1
 C        -3.159520         0.240325         2.937851
 C        -2.445717         0.048356         1.593522
 C        -3.127794        -0.552891         0.425460
 C        -2.015011        -1.311999         1.024414
 C        -0.621294        -1.255431         0.236019
 C        -0.179478         0.040443        -0.436092
 O         0.656376         0.228762        -1.246250
 O        -0.839283         1.178873         0.014383
 C        -1.677664         1.312019         1.214781
 H        -3.338680        -0.636531         3.460097
 H        -2.468042         0.956948         3.442734
 H        -4.087900         0.830899         2.762820
 H        -4.154910        -0.947723         0.662482
 H        -2.894855        -0.027225        -0.486064
 H        -2.254773        -2.224875         1.537231
 H         0.145363        -1.527189         0.906625
 H        -0.540173        -2.051172        -0.493319
 H        -1.104387         1.808642         1.978848
 H        -2.412775         2.080731         0.875393
