19
Iteration:  1624
 C        -3.333868         0.454094         2.809393
 C        -2.479047         0.032309         1.578112
 C        -3.004403        -0.732584         0.326961
 C        -1.769197        -1.308453         1.246717
 C        -0.448026        -1.209204         0.375121
 C        -0.249412         0.094110        -0.414405
 O         0.435833         0.214974        -1.416671
 O        -0.966033         1.192345         0.002647
 C        -1.568436         1.213913         1.281499
 H        -4.205762         1.046611         2.503141
 H        -3.687195        -0.473131         3.329304
 H        -2.706409         1.045034         3.531785
 H        -4.064176        -0.925262         0.514317
 H        -2.751728        -0.311353        -0.708057
 H        -1.801405        -2.261540         1.736447
 H         0.450389        -1.474204         1.017841
 H        -0.462995        -1.945944        -0.419048
 H        -0.749159         1.065950         2.086043
 H        -2.077657         2.222993         1.474604
