19
Iteration:  3020charge 0 multiplicity 1
 C        -3.144258         0.121453         2.811265
 C        -2.471608         0.002178         1.514915
 C        -3.111779        -0.696835         0.340590
 C        -1.845099        -1.185701         1.029399
 C        -0.414336        -1.081001         0.505320
 C        -0.227102         0.108617        -0.348038
 O         0.319082         0.083376        -1.400702
 O        -0.774170         1.296603         0.098378
 C        -1.726522         1.344510         1.190275
 H        -4.152512         0.411189         2.638869
 H        -2.985906        -0.828419         3.351274
 H        -2.655076         0.915488         3.429475
 H        -4.090766        -1.248882         0.437005
 H        -3.038049        -0.246914        -0.604283
 H        -1.941177        -2.182507         1.531588
 H         0.288058        -0.983153         1.412123
 H        -0.071176        -1.911951        -0.133870
 H        -1.131048         1.559261         2.111948
 H        -2.418357         2.116375         1.021852
