19
Iteration:   909charge 0 multiplicity 1
 C        -2.133779         0.385006         2.877766
 C        -2.412341         0.068098         1.413459
 C        -3.526805        -0.874055         0.990285
 C        -2.011872        -1.214463         0.689117
 C        -1.057385        -1.062705        -0.534573
 C        -0.179701         0.061439        -0.219190
 O         1.015824         0.198462        -0.079979
 O        -0.924735         1.220722        -0.021832
 C        -2.242925         1.207220         0.564220
 H        -3.056558         0.572819         3.475035
 H        -1.667296        -0.495910         3.344958
 H        -1.416441         1.235406         2.869153
 H        -3.891230        -1.644804         1.626502
 H        -4.167064        -0.542511         0.147039
 H        -1.766236        -2.105462         1.156353
 H        -0.330054        -1.960476        -0.572701
 H        -1.606608        -0.927167        -1.507866
 H        -2.572251         2.212874         0.980881
 H        -2.955072         1.142013        -0.333812
