19
Iteration:  3753
 C        -3.255959         0.343647         2.841477
 C        -2.453661        -0.026692         1.633555
 C        -3.151251        -0.292846         0.283645
 C        -2.083408        -1.198661         0.819152
 C        -0.609956        -1.221551         0.345936
 C        -0.233281        -0.012245        -0.459128
 O         0.352326         0.118790        -1.487554
 O        -0.605853         1.172995         0.247803
 C        -1.345093         1.045118         1.500657
 H        -3.873971        -0.473187         3.193402
 H        -2.498395         0.571555         3.655437
 H        -3.931044         1.203664         2.601322
 H        -4.142901        -0.633373         0.373770
 H        -2.927966         0.409905        -0.629798
 H        -2.643744        -2.074254         1.044802
 H         0.059573        -1.251089         1.206639
 H        -0.479569        -2.049200        -0.346916
 H        -0.619963         1.085330         2.317068
 H        -2.050714         1.930478         1.721605
