19
Iteration:  4992
 C        -3.226791         0.063230         2.920743
 C        -2.438095         0.153510         1.580038
 C        -3.109741        -0.386444         0.329493
 C        -2.013200        -1.166048         1.055641
 C        -0.768359        -1.305192         0.158566
 C        -0.212564        -0.005282        -0.398239
 O         0.595921         0.122442        -1.348510
 O        -0.790803         1.158433         0.092121
 C        -1.437578         1.372608         1.347170
 H        -3.851319         1.067154         3.264784
 H        -3.991435        -0.793749         2.954509
 H        -2.531411        -0.234836         3.786375
 H        -4.089758        -0.681647         0.684564
 H        -2.830061         0.061288        -0.572281
 H        -2.317698        -2.117979         1.473156
 H         0.120437        -1.430348         0.789382
 H        -0.812847        -1.981799        -0.707044
 H        -0.776809         1.636269         2.212182
 H        -2.080253         2.300826         1.180764
