19
Iteration:  1354charge 0 multiplicity 1
 C        -3.174020         0.170892         2.801380
 C        -2.354275         0.148541         1.435983
 C        -3.084600        -0.925560         0.405515
 C        -1.852747        -1.244680         1.205217
 C        -0.610657        -1.157026         0.356425
 C        -0.387961         0.123581        -0.423736
 O         0.267112         0.001507        -1.417185
 O        -0.420378         1.298557         0.304481
 C        -1.759458         1.577038         1.069018
 H        -3.649715         1.169507         2.869895
 H        -3.923268        -0.632459         2.757448
 H        -2.668731        -0.245317         3.656897
 H        -4.167147        -0.893202         0.638143
 H        -2.840505        -0.628555        -0.658671
 H        -2.023794        -2.031785         1.930558
 H         0.214702        -0.998357         1.058372
 H        -0.432405        -2.018371        -0.230022
 H        -1.724072         2.132973         2.099421
 H        -2.399596         2.066475         0.374836
