19
Iteration:  2910
 C        -3.299205         0.152115         2.826727
 C        -2.525060         0.033249         1.515747
 C        -3.066953        -0.737261         0.335108
 C        -1.825588        -1.206865         1.095814
 C        -0.398670        -0.950056         0.583972
 C        -0.202886         0.096064        -0.436924
 O         0.371890         0.099664        -1.505627
 O        -0.927628         1.236031        -0.000411
 C        -1.504622         1.304080         1.327960
 H        -3.814823         1.117276         3.031157
 H        -4.171097        -0.560925         2.926958
 H        -2.691214        -0.206718         3.683343
 H        -3.813659        -1.465974         0.526457
 H        -2.988759        -0.257581        -0.713769
 H        -2.000073        -2.180811         1.507228
 H         0.203606        -0.692933         1.473832
 H         0.161541        -1.854992         0.187169
 H        -0.751049         1.346961         2.153659
 H        -2.135610         2.128406         1.214629
