19
Iteration:  1790
 C        -3.451174         0.347564         2.778977
 C        -2.509606         0.099743         1.600315
 C        -2.987391        -0.785721         0.417841
 C        -1.779792        -1.219618         1.116831
 C        -0.455825        -1.159441         0.414541
 C        -0.206077         0.065630        -0.401760
 O         0.354398         0.236988        -1.444329
 O        -0.909587         1.171941        -0.018235
 C        -1.438822         1.221875         1.315532
 H        -4.195021         1.077573         2.386016
 H        -3.878511        -0.576664         3.197092
 H        -2.916834         0.773998         3.632998
 H        -3.949834        -1.171899         0.731728
 H        -2.953817        -0.404436        -0.587092
 H        -1.811358        -2.181168         1.680104
 H         0.451272        -1.358110         1.152357
 H        -0.287334        -1.926206        -0.352804
 H        -0.608512         1.186036         2.035423
 H        -1.791936         2.236476         1.497748
