19
Iteration:  3111charge 0 multiplicity 1
 C        -3.192934         0.151086         2.909661
 C        -2.446479         0.054112         1.566991
 C        -3.205362        -0.707658         0.511705
 C        -1.941376        -1.211667         1.026419
 C        -0.654843        -1.093600         0.308675
 C        -0.181403         0.115382        -0.441486
 O         0.690813         0.272147        -1.246338
 O        -0.923561         1.221205        -0.100141
 C        -1.531106         1.198122         1.194035
 H        -3.419102        -0.804361         3.472559
 H        -2.569130         0.834228         3.501239
 H        -4.225184         0.653381         2.891311
 H        -4.036447        -1.205509         0.961758
 H        -3.400238        -0.511618        -0.589374
 H        -2.093796        -2.182460         1.517548
 H         0.112249        -1.269742         1.123600
 H        -0.625615        -1.926094        -0.385564
 H        -0.739706         1.472641         1.974714
 H        -2.192609         2.020748         1.044505
