19
Iteration:  1231
 C        -3.128828         0.124135         2.968366
 C        -2.556359         0.097856         1.577759
 C        -3.150382        -0.519812         0.372697
 C        -1.940574        -1.086752         1.080531
 C        -0.521515        -1.141503         0.417168
 C        -0.190645         0.023855        -0.413833
 O         0.612495         0.067410        -1.353395
 O        -0.903848         1.132054        -0.042066
 C        -1.642182         1.313761         1.151539
 H        -4.056152         0.660122         2.931545
 H        -3.337320        -0.855066         3.401907
 H        -2.459593         0.732951         3.568768
 H        -4.056363        -1.153372         0.373110
 H        -3.075416         0.103119        -0.455761
 H        -2.084309        -2.073891         1.551257
 H         0.191241        -1.133754         1.231826
 H        -0.252285        -2.018753        -0.121580
 H        -0.938702         1.754397         1.905388
 H        -2.464692         2.086956         0.971192
