19
Iteration:  3439charge 0 multiplicity 1
 C        -3.175055         0.172912         2.894962
 C        -2.427335         0.062373         1.548861
 C        -3.072372        -0.358141         0.240142
 C        -2.072154        -1.268503         0.957327
 C        -0.687464        -1.265272         0.348249
 C        -0.338971         0.064646        -0.423056
 O         0.452201         0.147245        -1.329274
 O        -0.729549         1.244971         0.142284
 C        -1.399439         1.180744         1.357278
 H        -2.555593         0.882532         3.447746
 H        -4.040953         0.809445         2.907818
 H        -3.170811        -0.790351         3.441730
 H        -4.148264        -0.736123         0.343554
 H        -2.876346         0.126939        -0.715642
 H        -2.467150        -2.259016         1.186535
 H         0.066494        -1.486130         1.038958
 H        -0.511441        -1.983943        -0.478784
 H        -0.648802         1.045202         2.100597
 H        -1.898931         2.089186         1.522226
