19
Iteration:  1709
 C        -3.209074         0.087295         2.873476
 C        -2.547629         0.164910         1.543687
 C        -2.937054        -0.454509         0.270946
 C        -1.709611        -1.138957         1.057752
 C        -0.330058        -1.162526         0.498866
 C        -0.265107         0.057269        -0.303814
 O         0.218767        -0.066469        -1.419777
 O        -0.819242         1.161514         0.099378
 C        -1.825711         1.405256         1.185738
 H        -3.732429         0.947348         3.261831
 H        -3.919406        -0.754332         2.834137
 H        -2.325419        -0.063915         3.556728
 H        -3.600414        -1.275641         0.142236
 H        -2.609481         0.021427        -0.730842
 H        -2.069414        -1.880057         1.715098
 H         0.485135        -1.057926         1.361632
 H         0.045164        -1.820326        -0.311807
 H        -1.275546         1.679432         2.057726
 H        -2.274177         2.210121         0.608011
