19
Iteration:   810charge 0 multiplicity 1
 C        -2.727369         0.534752         2.928863
 C        -2.541836         0.001652         1.508569
 C        -3.394772        -1.095682         0.892982
 C        -1.875643        -1.276475         0.956360
 C        -1.191678        -1.025917        -0.417556
 C        -0.166593         0.195083        -0.397376
 O         1.036265         0.245711        -0.744380
 O        -0.593542         1.199087         0.436822
 C        -2.032632         1.177381         0.566973
 H        -3.154452         1.577767         2.757249
 H        -3.323138        -0.181273         3.532400
 H        -1.744880         0.513006         3.470308
 H        -3.960332        -1.668455         1.648780
 H        -3.876867        -1.084110        -0.018901
 H        -1.458335        -2.026157         1.522174
 H        -0.549942        -1.890835        -0.767164
 H        -1.911208        -0.740954        -1.183691
 H        -2.175882         2.268704         0.843935
 H        -2.497503         1.024430        -0.424791
