19
Iteration:   919charge 0 multiplicity 1
 C        -2.152563         0.417693         2.845717
 C        -2.485121         0.007450         1.494997
 C        -3.437094        -0.938507         0.955055
 C        -1.974535        -1.207342         0.696362
 C        -1.107218        -1.091933        -0.597503
 C        -0.217111         0.113368        -0.264295
 O         0.999693         0.145174        -0.048722
 O        -0.897749         1.269075         0.044056
 C        -2.223552         1.212640         0.511437
 H        -3.029147         0.871049         3.342284
 H        -1.699362        -0.310863         3.498286
 H        -1.468700         1.250533         2.808064
 H        -3.868582        -1.539600         1.724234
 H        -4.168169        -0.664157         0.187934
 H        -1.636529        -1.890676         1.391605
 H        -0.446126        -2.014973        -0.883264
 H        -1.655557        -0.797413        -1.565471
 H        -2.210098         2.229409         1.093225
 H        -3.032908         1.113062        -0.293280
