19
Iteration:  3461charge 0 multiplicity 1
 C        -3.180586         0.218209         2.960307
 C        -2.470156         0.093858         1.662923
 C        -3.166164        -0.334542         0.297741
 C        -1.979783        -1.174756         0.817380
 C        -0.571954        -1.326543         0.158815
 C        -0.132236        -0.031317        -0.356146
 O         0.474782         0.130477        -1.408886
 O        -0.801851         1.104463         0.186645
 C        -1.524338         1.282636         1.432035
 H        -2.954826         1.186479         3.435801
 H        -4.227388         0.479452         2.785215
 H        -3.006121        -0.658666         3.632606
 H        -4.330635        -0.389958         0.265431
 H        -2.925658         0.370161        -0.473567
 H        -2.241244        -2.200215         1.182317
 H         0.056467        -1.652491         0.913968
 H        -0.588945        -2.193469        -0.533147
 H        -0.840950         1.498985         2.220839
 H        -2.161740         2.100161         1.337455
