19
Iteration:  3163
 C        -3.057076         0.155181         2.905298
 C        -2.439966         0.049087         1.495723
 C        -3.124365        -0.588748         0.341693
 C        -1.876730        -1.231327         1.122927
 C        -0.646740        -1.201343         0.284055
 C        -0.256088         0.105100        -0.341565
 O         0.570522         0.191483        -1.271799
 O        -0.811099         1.203601         0.072268
 C        -1.757079         1.315064         1.157985
 H        -2.298447        -0.078620         3.573146
 H        -3.494267         1.134586         3.128287
 H        -3.775765        -0.664200         3.072259
 H        -4.092507        -0.944652         0.464380
 H        -3.023868        -0.135903        -0.687444
 H        -2.173975        -2.157387         1.704995
 H         0.228103        -1.545986         0.964605
 H        -0.737712        -1.821173        -0.588418
 H        -1.131485         1.693496         2.019004
 H        -2.511258         2.002178         0.838311
