19
Iteration:  2204charge 0 multiplicity 1
 C        -3.220092         0.166689         2.888514
 C        -2.428590         0.078301         1.534107
 C        -2.988294        -0.674033         0.267422
 C        -1.881097        -1.296512         1.062808
 C        -0.420847        -1.219323         0.503013
 C        -0.319467         0.061309        -0.393592
 O         0.255075         0.153131        -1.445683
 O        -0.676954         1.299939         0.149224
 C        -1.712475         1.357071         1.174615
 H        -4.284511         0.409893         2.678766
 H        -3.117828        -0.736258         3.482597
 H        -2.827510         1.009427         3.491789
 H        -3.963878        -1.086143         0.311844
 H        -2.447450        -0.381588        -0.686114
 H        -2.117476        -1.917807         1.908667
 H         0.381611        -1.313444         1.378088
 H        -0.296811        -1.962333        -0.259614
 H        -1.287834         1.889758         2.109455
 H        -2.402111         2.193688         0.768903
