19
Iteration:  3442
 C        -3.177490         0.192471         2.922266
 C        -2.414231         0.064321         1.541143
 C        -3.057119        -0.333464         0.260219
 C        -2.078323        -1.266886         0.916753
 C        -0.686991        -1.292107         0.324325
 C        -0.334128         0.053436        -0.405285
 O         0.465077         0.153967        -1.347522
 O        -0.739452         1.225964         0.143408
 C        -1.438214         1.181647         1.374193
 H        -2.574254         0.944584         3.515686
 H        -4.109888         0.740413         2.874845
 H        -3.148485        -0.727394         3.448075
 H        -4.069460        -0.823008         0.333687
 H        -2.824296         0.162556        -0.650285
 H        -2.461585        -2.271437         1.289188
 H         0.112172        -1.502576         1.097803
 H        -0.434997        -1.990284        -0.539993
 H        -0.676618         1.050890         2.153149
 H        -1.948249         2.181969         1.427010
