19
Iteration:  3045charge 0 multiplicity 1
 C        -3.088256         0.153714         2.944727
 C        -2.449881         0.054563         1.541444
 C        -2.971420        -0.631352         0.197258
 C        -1.889415        -1.279252         1.026787
 C        -0.458214        -1.290958         0.495997
 C        -0.275288         0.114091        -0.296418
 O         0.404289         0.166457        -1.315157
 O        -0.976780         1.284313        -0.022539
 C        -1.706022         1.392970         1.190645
 H        -4.167109         0.076642         2.939513
 H        -2.558084        -0.621180         3.493150
 H        -2.716698         1.125588         3.398636
 H        -3.965933        -1.013444         0.144851
 H        -2.643375        -0.198089        -0.803648
 H        -2.059891        -2.157478         1.719347
 H         0.218104        -1.249834         1.333934
 H        -0.139396        -2.039121        -0.177445
 H        -1.029129         1.677209         2.019809
 H        -2.488843         2.061516         1.013490
