19
Iteration:  2175
 C        -3.373533         0.086670         2.682018
 C        -2.496353         0.124927         1.458537
 C        -2.991096        -0.705346         0.393158
 C        -1.751469        -1.111205         1.146037
 C        -0.440938        -1.037530         0.454722
 C        -0.292521         0.075418        -0.391093
 O         0.207085         0.042246        -1.488146
 O        -0.678701         1.301351         0.124625
 C        -1.567627         1.301344         1.369642
 H        -4.444525         0.402627         2.532153
 H        -3.213185        -0.793872         3.309831
 H        -3.071977         0.867028         3.383280
 H        -3.825719        -1.336325         0.766659
 H        -2.902408        -0.782028        -0.683466
 H        -1.813198        -1.836279         1.931909
 H         0.385005        -1.263834         1.077532
 H        -0.436906        -1.901344        -0.289295
 H        -0.929760         1.162477         2.260997
 H        -2.004699         2.217022         1.052047
