19
Iteration:   490
 C        -3.331179         0.203680         2.690499
 C        -2.437959         0.095797         1.480916
 C        -2.914260        -0.613053         0.211688
 C        -1.905834        -1.272444         1.150946
 C        -0.495033        -1.099821         0.623215
 C        -0.371651         0.087500        -0.389975
 O         0.168746         0.072922        -1.500324
 O        -0.750808         1.301079         0.098357
 C        -1.389730         1.218722         1.391792
 H        -4.463746         0.089243         2.470404
 H        -2.975882        -0.637147         3.234366
 H        -3.025978         0.993104         3.313315
 H        -3.929424        -0.982540         0.249216
 H        -2.470239        -0.230697        -0.712648
 H        -2.278667        -2.204196         1.689394
 H         0.275680        -0.871821         1.365255
 H        -0.081119        -1.992857         0.114657
 H        -0.590470         1.206792         2.130978
 H        -1.773396         2.240185         1.548153
