19
Iteration:  1218charge 0 multiplicity 1
 C        -3.142555         0.230842         3.001618
 C        -2.464618         0.057336         1.620847
 C        -3.145909        -0.522404         0.399068
 C        -1.944629        -1.301860         1.021812
 C        -0.558518        -1.183032         0.407311
 C        -0.152508         0.065775        -0.435517
 O         0.602497         0.071477        -1.362365
 O        -0.776076         1.234167        -0.004700
 C        -1.834775         1.318429         1.106936
 H        -3.989588         0.828715         3.073801
 H        -3.305916        -0.748446         3.392221
 H        -2.404157         0.568992         3.712740
 H        -4.176135        -0.835246         0.541843
 H        -2.906232        -0.050404        -0.558122
 H        -2.217521        -2.169782         1.600669
 H         0.205687        -1.159580         1.236145
 H        -0.387278        -2.126541        -0.191924
 H        -1.365130         1.808853         1.921571
 H        -2.509968         2.045848         0.561077
