19
Iteration:   166
 C        -3.323070         0.048976         2.948563
 C        -2.529465         0.148221         1.566753
 C        -3.280382        -0.465468         0.298227
 C        -2.097635        -1.176855         0.959668
 C        -0.700421        -1.083287         0.335844
 C        -0.132445         0.085762        -0.396893
 O         0.574630         0.025013        -1.426669
 O        -0.627633         1.281969         0.056017
 C        -1.330838         1.202986         1.376747
 H        -3.495333        -0.927732         3.277715
 H        -2.847097         0.592755         3.801412
 H        -4.309951         0.542037         2.855270
 H        -4.327021        -0.791352         0.462753
 H        -3.152261        -0.092150        -0.687311
 H        -2.274192        -2.267348         1.413185
 H        -0.009575        -1.319072         1.218557
 H        -0.547332        -1.930513        -0.309848
 H        -0.586443         0.964302         2.141443
 H        -1.624689         2.235255         1.568999
