19
Iteration:  4958
 C        -3.164084         0.258515         2.887742
 C        -2.484692         0.071997         1.567378
 C        -3.184406        -0.428205         0.348309
 C        -2.037869        -1.293347         0.951481
 C        -0.664035        -1.206461         0.172869
 C        -0.179438         0.073106        -0.399591
 O         0.468254         0.112659        -1.370253
 O        -0.667947         1.207306         0.210151
 C        -1.484573         1.186766         1.362484
 H        -3.623260         1.349523         2.837464
 H        -3.937632        -0.529684         3.058937
 H        -2.325854         0.291569         3.650763
 H        -4.203027        -0.810765         0.509874
 H        -3.267350         0.147278        -0.550354
 H        -2.200758        -2.323822         1.198727
 H         0.066709        -1.455705         0.931395
 H        -0.578653        -2.048311        -0.472164
 H        -0.978617         1.251235         2.324268
 H        -2.122529         2.096136         1.273322
