19
Iteration:  3616charge 0 multiplicity 1
 C        -3.058420         0.063178         2.857746
 C        -2.472408         0.177361         1.416892
 C        -3.229779        -0.347049         0.230726
 C        -2.143339        -1.125111         0.909893
 C        -0.791152        -1.204946         0.304710
 C        -0.299236         0.071451        -0.330539
 O         0.434328        -0.010261        -1.318861
 O        -0.646743         1.292748         0.146759
 C        -1.290498         1.160786         1.475221
 H        -4.033230        -0.544161         2.772634
 H        -2.344304        -0.457780         3.515462
 H        -3.365237         1.031083         3.335505
 H        -4.252907        -0.676761         0.271161
 H        -2.703078        -0.052625        -0.712451
 H        -2.364831        -1.929379         1.676316
 H        -0.035378        -1.477907         0.999293
 H        -0.726411        -1.944277        -0.537703
 H        -0.505324         0.867449         2.255318
 H        -1.616688         2.158299         1.687286
