19
Iteration:  3837
 C        -3.170468         0.121236         2.969290
 C        -2.449324         0.090392         1.546718
 C        -3.222147        -0.355202         0.334999
 C        -2.150546        -1.182212         0.869124
 C        -0.769923        -1.209772         0.300658
 C        -0.230299         0.000564        -0.439075
 O         0.521470         0.084148        -1.417524
 O        -0.571927         1.201320         0.160079
 C        -1.408988         1.242225         1.389554
 H        -4.253589         0.010121         2.803888
 H        -2.911928        -0.586493         3.797699
 H        -3.189059         1.184447         3.272764
 H        -4.149818        -0.874143         0.392529
 H        -3.132327         0.304529        -0.577406
 H        -2.471760        -2.094799         1.214067
 H        -0.053375        -1.353339         1.207063
 H        -0.504174        -2.066931        -0.282759
 H        -0.569797         1.209889         2.136193
 H        -1.889814         2.247188         1.382991
