19
Iteration:   602
 C        -3.399424         0.347491         2.701583
 C        -2.476725         0.039794         1.531266
 C        -3.035833        -0.793556         0.398641
 C        -1.777871        -1.215375         1.091906
 C        -0.415114        -1.134217         0.423681
 C        -0.199343         0.117357        -0.372110
 O         0.260845         0.146846        -1.512245
 O        -0.790148         1.234793         0.108686
 C        -1.478683         1.265943         1.360239
 H        -3.347683         1.446953         2.913148
 H        -4.431965        -0.028152         2.568077
 H        -3.325319        -0.283792         3.616110
 H        -3.843408        -1.398043         0.719281
 H        -3.093318        -0.480041        -0.609650
 H        -1.942616        -2.123499         1.676859
 H         0.405303        -1.051305         1.221915
 H        -0.298102        -2.048967        -0.108755
 H        -0.918782         1.209904         2.326068
 H        -2.101366         2.161701         1.389784
