19
Iteration:  4577
 C        -3.158815         0.364857         2.914139
 C        -2.487032         0.022797         1.555968
 C        -3.222660        -0.380437         0.344719
 C        -2.036806        -1.309051         0.821116
 C        -0.608705        -1.287142         0.230999
 C        -0.136972         0.026578        -0.355763
 O         0.474806         0.249065        -1.422108
 O        -0.758942         1.156737         0.200350
 C        -1.489757         1.102330         1.417169
 H        -4.038957         1.056289         2.859800
 H        -3.441204        -0.540516         3.505987
 H        -2.415609         0.869239         3.614826
 H        -4.106814        -0.966142         0.515128
 H        -2.975664         0.197916        -0.551348
 H        -2.328126        -2.147767         1.503528
 H         0.087183        -1.712149         0.938621
 H        -0.607663        -1.986400        -0.613063
 H        -0.825918         1.164227         2.205875
 H        -1.873074         2.129214         1.312645
