19
Iteration:  1651charge 0 multiplicity 1
 C        -3.287824         0.290215         2.750363
 C        -2.467680         0.045815         1.508665
 C        -3.101975        -0.809671         0.350849
 C        -1.800920        -1.192217         1.123820
 C        -0.488892        -1.050047         0.488287
 C        -0.316543         0.115087        -0.411970
 O         0.394050         0.088112        -1.398781
 O        -0.875466         1.301757        -0.043692
 C        -1.466970         1.230124         1.355351
 H        -3.993484         1.114273         2.502147
 H        -3.845517        -0.555778         3.129882
 H        -2.713712         0.605747         3.629098
 H        -4.006161        -1.327513         0.805586
 H        -3.259532        -0.675021        -0.682748
 H        -1.817373        -2.141989         1.730974
 H         0.233366        -0.946478         1.257930
 H        -0.133856        -1.916035        -0.106594
 H        -0.643324         0.886880         2.003193
 H        -1.716493         2.207760         1.701707
