19
Iteration:  2060charge 0 multiplicity 1
 C        -3.183695        -0.036325         2.898091
 C        -2.473697         0.176702         1.497353
 C        -3.065041        -0.629768         0.358951
 C        -1.886029        -1.235318         1.065152
 C        -0.441791        -1.004312         0.589729
 C        -0.282237         0.089881        -0.442634
 O         0.425331        -0.058627        -1.433991
 O        -0.787358         1.325628         0.022432
 C        -1.713425         1.398694         1.164646
 H        -3.664162         0.831658         3.303358
 H        -3.879446        -0.879642         2.742674
 H        -2.490325        -0.354730         3.689330
 H        -4.054936        -0.945479         0.783197
 H        -3.125005        -0.138276        -0.612403
 H        -1.883464        -2.181735         1.705339
 H         0.364556        -0.598131         1.345931
 H        -0.060112        -1.875616         0.054019
 H        -1.152760         1.665105         2.065319
 H        -2.473846         2.126961         0.809751
