19
Iteration:  3894
 C        -3.164325         0.171224         2.934417
 C        -2.424432         0.196934         1.530236
 C        -3.148321        -0.375082         0.268439
 C        -2.108960        -1.250417         0.956766
 C        -0.830574        -1.285797         0.141372
 C        -0.316297         0.058966        -0.390539
 O         0.565688         0.088568        -1.237123
 O        -0.706954         1.225474         0.092166
 C        -1.316049         1.181909         1.378556
 H        -3.632174        -0.779981         3.210248
 H        -2.429853         0.471533         3.764694
 H        -3.925098         0.942151         3.132824
 H        -4.265073        -0.540997         0.350924
 H        -2.875932         0.172560        -0.607609
 H        -2.329598        -2.191265         1.525055
 H        -0.010665        -1.586438         0.825839
 H        -0.857509        -1.959428        -0.711335
 H        -0.594170         0.992923         2.198291
 H        -1.869210         2.118965         1.683993
