19
Iteration:  1313charge 0 multiplicity 1
 C        -3.299602         0.387301         2.839744
 C        -2.537212         0.088045         1.619128
 C        -3.107307        -0.750328         0.380896
 C        -1.789434        -1.208998         1.103344
 C        -0.380297        -1.214225         0.393563
 C        -0.111182         0.045563        -0.395585
 O         0.354050         0.155866        -1.499259
 O        -0.758877         1.157684         0.100131
 C        -1.728897         1.315915         1.253884
 H        -3.575209         1.511786         2.768474
 H        -4.243008        -0.209522         2.887932
 H        -2.784438         0.199165         3.826642
 H        -4.034991        -1.347834         0.584674
 H        -3.011277        -0.313310        -0.612220
 H        -1.834697        -2.030198         1.805356
 H         0.370984        -1.617488         1.014612
 H        -0.499154        -1.906591        -0.479675
 H        -0.921713         1.549732         2.032121
 H        -2.302706         2.222786         1.102400
