19
Iteration:  2378
 C        -2.901228         0.064997         2.887875
 C        -2.502171         0.106409         1.421930
 C        -3.200857        -0.724451         0.496683
 C        -1.932636        -1.256172         1.086624
 C        -0.615511        -1.072372         0.362533
 C        -0.273606         0.163610        -0.376633
 O         0.678639         0.032532        -1.099307
 O        -0.920702         1.336161        -0.167655
 C        -1.805059         1.411265         1.130224
 H        -3.865227         0.634302         3.069266
 H        -3.123306        -1.006352         3.026613
 H        -1.947277         0.333367         3.417570
 H        -4.208912        -1.306353         0.724362
 H        -3.165084        -0.582984        -0.613414
 H        -1.982824        -1.996796         1.884910
 H         0.138185        -1.259663         1.065356
 H        -0.524168        -1.842545        -0.389955
 H        -0.968565         1.550662         1.905170
 H        -2.470254         2.301925         0.955757
