19
Iteration:  2109charge 0 multiplicity 1
 C        -3.326377         0.273586         2.729972
 C        -2.492414         0.075858         1.506514
 C        -2.948354        -0.640109         0.288383
 C        -1.701294        -1.205584         1.046912
 C        -0.279035        -1.123723         0.577838
 C        -0.252795         0.129170        -0.351848
 O         0.208178         0.059281        -1.446388
 O        -1.014691         1.203470         0.012212
 C        -1.582470         1.250132         1.413944
 H        -3.365544         1.395441         2.827616
 H        -4.228420        -0.303611         2.913907
 H        -2.655921         0.034676         3.563566
 H        -3.684043        -1.383039         0.340903
 H        -2.671611        -0.278101        -0.725424
 H        -1.873789        -2.114576         1.558516
 H         0.437038        -0.959274         1.295708
 H        -0.068849        -2.006184        -0.059409
 H        -0.652219         1.133508         2.036024
 H        -2.119892         2.201405         1.535765
