19
Iteration:  4815charge 0 multiplicity 1
 C        -3.125971         0.213502         2.784281
 C        -2.574113         0.090495         1.441850
 C        -3.151468        -0.547740         0.203148
 C        -2.058741        -1.178800         0.976791
 C        -0.690329        -1.202939         0.409968
 C        -0.229622         0.105980        -0.338711
 O         0.260615         0.111394        -1.465172
 O        -0.530262         1.275643         0.237966
 C        -1.385483         1.155060         1.459932
 H        -3.601026         1.241406         3.034873
 H        -3.799090        -0.653357         2.918416
 H        -2.210598        -0.030430         3.375257
 H        -4.227409        -0.835179         0.239660
 H        -2.806582        -0.080089        -0.761177
 H        -2.280900        -2.057489         1.672479
 H         0.054301        -1.354667         1.228725
 H        -0.490419        -1.950736        -0.351681
 H        -0.715118         0.795668         2.220665
 H        -1.785553         2.147178         1.695074
