19
Iteration:  1975charge 0 multiplicity 1
 C        -3.282338         0.260904         2.851099
 C        -2.480145         0.130447         1.587910
 C        -3.220265        -0.717788         0.613095
 C        -1.847063        -1.310222         1.110841
 C        -0.556777        -1.176496         0.247172
 C        -0.151027         0.211282        -0.371187
 O         0.659155         0.202300        -1.266155
 O        -1.016464         1.265877        -0.180189
 C        -1.474464         1.149738         1.210881
 H        -4.227072         0.784661         2.460562
 H        -3.600290        -0.680709         3.331577
 H        -2.834215         0.892892         3.636635
 H        -4.076778        -1.311049         0.977610
 H        -3.176371        -0.676769        -0.479887
 H        -2.001596        -2.180666         1.905544
 H         0.361649        -1.595787         0.600613
 H        -0.627254        -1.707215        -0.675705
 H        -0.624607         1.374945         1.906022
 H        -2.091053         2.078959         1.363350
