19
Iteration:   630charge 0 multiplicity 1
 C        -3.330221         0.347609         2.886708
 C        -2.459964        -0.045927         1.643597
 C        -3.020457        -0.598142         0.402994
 C        -1.846793        -1.339205         1.126534
 C        -0.451222        -1.128708         0.419376
 C        -0.232263         0.100379        -0.489183
 O         0.515908         0.245270        -1.368207
 O        -1.000669         1.164926        -0.102699
 C        -1.533857         1.168025         1.244797
 H        -3.406594         1.459432         3.074214
 H        -4.398261         0.154223         2.670146
 H        -3.099013        -0.137367         3.828893
 H        -4.113156        -1.002402         0.318415
 H        -2.617020        -0.045295        -0.469092
 H        -2.087284        -2.307830         1.729286
 H         0.315672        -0.945602         1.145992
 H        -0.116838        -2.147225        -0.018881
 H        -0.806216         1.296992         2.038593
 H        -2.181891         2.097032         1.277247
