19
Iteration:  1382charge 0 multiplicity 1
 C        -3.156635         0.202424         2.855129
 C        -2.556990         0.142639         1.453655
 C        -3.176468        -0.713479         0.425812
 C        -1.839900        -1.213778         1.115309
 C        -0.434465        -1.201931         0.463838
 C        -0.173979         0.077674        -0.302890
 O         0.228390         0.105610        -1.473536
 O        -0.490489         1.217938         0.247736
 C        -1.794726         1.397340         0.991154
 H        -3.934028         0.961053         2.890712
 H        -3.557596        -0.770279         3.193739
 H        -2.343880         0.437124         3.617742
 H        -4.065466        -1.287728         0.491459
 H        -2.921042        -0.264564        -0.551642
 H        -2.110295        -2.011550         1.841675
 H         0.419714        -1.523934         1.141564
 H        -0.462346        -1.963375        -0.368765
 H        -1.593184         1.877121         1.893523
 H        -2.397905         2.116878         0.328419
