19
Iteration:  1296
 C        -3.349002         0.392653         2.881667
 C        -2.453570         0.056788         1.566236
 C        -3.004433        -0.680925         0.421933
 C        -1.814360        -1.295839         1.079975
 C        -0.469301        -1.208774         0.372109
 C        -0.256141         0.080049        -0.463276
 O         0.470700         0.109187        -1.405912
 O        -0.942383         1.228715        -0.003175
 C        -1.542666         1.256311         1.303679
 H        -3.793489         1.343902         2.825942
 H        -4.181397        -0.274921         3.060792
 H        -2.690182         0.480855         3.725444
 H        -3.974514        -1.178352         0.580832
 H        -2.889775        -0.248078        -0.556926
 H        -2.117243        -2.246251         1.573203
 H         0.331630        -1.015284         1.197180
 H        -0.139896        -2.069004        -0.234026
 H        -0.909971         1.442685         2.145024
 H        -2.178228         2.187260         1.159992
