19
Iteration:  3400
 C        -3.290627         0.115728         2.809603
 C        -2.540111         0.177506         1.504890
 C        -3.178567        -0.476480         0.360963
 C        -1.974036        -1.154787         0.935530
 C        -0.571937        -1.186275         0.342860
 C        -0.234103         0.060947        -0.427869
 O         0.397850         0.055877        -1.433597
 O        -0.698114         1.287121         0.156767
 C        -1.330935         1.193910         1.443704
 H        -2.682202        -0.456812         3.560945
 H        -3.668868         1.090740         3.210563
 H        -4.193666        -0.468255         2.672134
 H        -4.088321        -0.878490         0.835481
 H        -3.269672        -0.129668        -0.632010
 H        -2.260512        -2.157996         1.351434
 H         0.271822        -1.283646         1.144830
 H        -0.547294        -2.085704        -0.318779
 H        -0.516958         0.834267         2.181028
 H        -1.557655         2.324971         1.668001
