19
Iteration:  4483charge 0 multiplicity 1
 C        -3.200452         0.203424         2.866014
 C        -2.425562         0.057179         1.531514
 C        -3.042929        -0.331723         0.149685
 C        -1.971946        -1.273435         0.900185
 C        -0.553213        -1.186365         0.429872
 C        -0.280929         0.030336        -0.360662
 O         0.239794         0.094094        -1.485249
 O        -0.667847         1.186807         0.207262
 C        -1.469515         1.180169         1.447728
 H        -3.372526         1.049091         3.482159
 H        -4.218563        -0.187378         2.829895
 H        -2.889974        -0.406597         3.678311
 H        -4.095161        -0.630969         0.242129
 H        -2.680381         0.330935        -0.612356
 H        -2.423552        -2.104067         1.369882
 H         0.214641        -1.150992         1.293494
 H        -0.169315        -1.990627        -0.227334
 H        -0.745523         1.447437         2.298518
 H        -2.199021         2.025563         1.400979
