19
Iteration:  3285charge 0 multiplicity 1
 C        -3.390811         0.180831         2.846134
 C        -2.444034         0.080842         1.658840
 C        -3.120086        -0.518879         0.338901
 C        -1.953318        -1.230591         0.972196
 C        -0.552187        -1.121402         0.364381
 C        -0.209259         0.129791        -0.470319
 O         0.433165         0.104193        -1.464850
 O        -0.742176         1.227399         0.065475
 C        -1.441674         1.176437         1.432887
 H        -4.429801         0.135721         2.608191
 H        -3.122556        -0.675223         3.451252
 H        -3.137086         1.017708         3.539607
 H        -4.092475        -1.060527         0.464496
 H        -2.994570        -0.075796        -0.651920
 H        -2.132145        -2.168848         1.476804
 H         0.247035        -1.039685         1.174410
 H        -0.311397        -2.002611        -0.230872
 H        -0.626154         1.087555         2.237275
 H        -1.881952         2.151604         1.484052
