19
Iteration:  3851charge 0 multiplicity 1
 C        -3.157964         0.289126         2.957812
 C        -2.499636         0.041158         1.626338
 C        -3.259131        -0.258975         0.336029
 C        -2.075442        -1.218411         0.765923
 C        -0.621453        -1.300658         0.227754
 C        -0.183472        -0.000395        -0.406342
 O         0.489633         0.134228        -1.364081
 O        -0.658044         1.134604         0.188594
 C        -1.471628         1.142062         1.363115
 H        -4.180611        -0.073684         2.890875
 H        -2.492796        -0.230543         3.715456
 H        -2.991738         1.312120         3.295155
 H        -4.322225        -0.603564         0.501006
 H        -3.016921         0.294728        -0.560090
 H        -2.449697        -2.148891         1.253482
 H         0.004167        -1.470811         1.086981
 H        -0.524653        -2.110581        -0.493644
 H        -0.882676         1.246220         2.307396
 H        -1.980670         2.188305         1.248680
