19
Iteration:   573
 C        -3.335966         0.131474         2.638531
 C        -2.456504         0.111457         1.375826
 C        -2.859052        -0.782797         0.279853
 C        -1.838040        -1.205064         1.252039
 C        -0.498595        -1.175630         0.582822
 C        -0.332995         0.110753        -0.405056
 O         0.006696         0.033971        -1.527543
 O        -0.533266         1.412075         0.226661
 C        -1.525329         1.379909         1.332362
 H        -3.452896         1.059138         3.082945
 H        -4.338886        -0.359834         2.436826
 H        -2.707796        -0.393383         3.440400
 H        -3.872111        -1.169219         0.377047
 H        -2.620335        -0.729637        -0.823991
 H        -2.098595        -1.953089         1.936476
 H         0.392832        -0.981686         1.239056
 H        -0.385713        -2.065745        -0.103151
 H        -0.978281         1.383772         2.298012
 H        -2.122350         2.275297         1.138715
