19
Iteration:  3596charge 0 multiplicity 1
 C        -3.208641         0.101092         2.852281
 C        -2.420934         0.159983         1.588602
 C        -3.154727        -0.303260         0.328532
 C        -2.084156        -1.156552         0.889324
 C        -0.737949        -1.278215         0.218508
 C        -0.211409         0.071566        -0.332249
 O         0.510176        -0.002239        -1.338749
 O        -0.774695         1.237813         0.103698
 C        -1.312286         1.226149         1.435048
 H        -4.304960        -0.093759         2.684516
 H        -2.772668        -0.647707         3.526400
 H        -3.105832         0.985935         3.473573
 H        -4.163513        -0.490743         0.679822
 H        -3.235133         0.255930        -0.635148
 H        -2.524610        -2.148949         1.175361
 H         0.021165        -1.716380         0.842156
 H        -0.774266        -1.984113        -0.613079
 H        -0.444204         0.997543         2.063992
 H        -1.660106         2.261844         1.689350
