19
Iteration:  3525charge 0 multiplicity 1
 C        -3.033478         0.156009         2.805059
 C        -2.444058         0.153715         1.443808
 C        -3.259086        -0.459331         0.341807
 C        -2.079415        -1.178836         0.899392
 C        -0.801318        -1.213954         0.193372
 C        -0.289009         0.080130        -0.313549
 O         0.503426        -0.007032        -1.218189
 O        -0.666320         1.343865         0.133568
 C        -1.386292         1.172875         1.379494
 H        -3.915103         0.782475         2.994825
 H        -3.187354        -0.942956         3.084766
 H        -2.278314         0.443843         3.629814
 H        -4.370940        -0.734350         0.624453
 H        -3.210890         0.040894        -0.605593
 H        -2.373608        -2.137968         1.362255
 H        -0.050591        -1.643287         0.935013
 H        -0.753935        -1.866489        -0.698980
 H        -0.660405         1.014432         2.299382
 H        -1.839081         2.168292         1.621772
