19
Iteration:  4768charge 0 multiplicity 1
 C        -3.313096         0.139283         2.861646
 C        -2.403373         0.050947         1.619139
 C        -3.055682        -0.294371         0.393092
 C        -1.958354        -1.135914         0.950165
 C        -0.659959        -1.311086         0.242909
 C        -0.204298         0.018669        -0.432035
 O         0.417450         0.108352        -1.479972
 O        -0.693739         1.146081         0.229204
 C        -1.478533         1.285292         1.416780
 H        -3.940666         1.070289         2.497264
 H        -4.019677        -0.772837         2.829407
 H        -2.763839         0.320340         3.865483
 H        -4.012470        -0.825273         0.605330
 H        -2.937145         0.255818        -0.533613
 H        -2.287156        -2.086260         1.396817
 H         0.204701        -1.654615         0.764568
 H        -0.763937        -1.923516        -0.676210
 H        -0.891457         1.346545         2.309811
 H        -2.042559         2.199369         1.223797
