19
Iteration:  1291charge 0 multiplicity 1
 C        -3.314810         0.373741         2.848701
 C        -2.429564         0.069076         1.613180
 C        -2.994344        -0.680368         0.380600
 C        -1.821744        -1.292782         1.104196
 C        -0.501852        -1.168475         0.394615
 C        -0.308973         0.044684        -0.471382
 O         0.489966         0.115172        -1.364575
 O        -0.947856         1.248130        -0.053791
 C        -1.555734         1.218064         1.301218
 H        -3.887450         1.371755         2.745914
 H        -4.050220        -0.444486         3.061820
 H        -2.686463         0.459241         3.786935
 H        -4.012274        -0.990960         0.660989
 H        -2.892363        -0.195022        -0.607653
 H        -2.092182        -2.246603         1.516010
 H         0.203796        -0.955883         1.194985
 H        -0.094936        -2.028854        -0.190504
 H        -0.639143         1.368906         1.991281
 H        -2.163342         2.114361         1.360070
