19
Iteration:  2787
 C        -3.189880         0.144928         2.797932
 C        -2.467059         0.049823         1.520276
 C        -3.279203        -0.869394         0.599340
 C        -1.812160        -1.244440         1.166086
 C        -0.675395        -1.102025         0.199895
 C        -0.319363         0.157201        -0.503652
 O         0.755974         0.200226        -1.081363
 O        -0.911461         1.354193        -0.189082
 C        -1.592152         1.295072         1.179579
 H        -3.626223         1.250366         2.843515
 H        -3.919416        -0.659114         3.078019
 H        -2.562962         0.181563         3.713831
 H        -4.028622        -1.201622         1.284306
 H        -3.489309        -0.782494        -0.454180
 H        -1.543343        -2.000083         1.907008
 H         0.355940        -1.295559         0.660008
 H        -0.698214        -1.943146        -0.580352
 H        -0.732026         1.117008         1.833933
 H        -2.006516         2.334004         1.408021
