19
Iteration:  3210
 C        -3.203253         0.024396         2.923833
 C        -2.559033         0.129743         1.574891
 C        -3.287394        -0.648214         0.459092
 C        -1.968849        -1.153144         0.947611
 C        -0.544086        -1.056540         0.377814
 C        -0.147213         0.126637        -0.422660
 O         0.564430         0.057583        -1.375486
 O        -0.734409         1.324297         0.031696
 C        -1.556675         1.241669         1.217221
 H        -3.081326         0.948141         3.527696
 H        -4.252496        -0.007225         2.770057
 H        -2.854590        -0.789515         3.567930
 H        -4.207551        -1.330264         0.636721
 H        -3.365713        -0.239550        -0.525573
 H        -1.964282        -2.068114         1.518246
 H         0.208224        -1.223442         1.242210
 H        -0.391514        -1.800053        -0.439041
 H        -0.763140         1.359176         2.007339
 H        -2.167007         2.109548         1.142557
