19
Iteration:  2984charge 0 multiplicity 1
 C        -3.387077         0.124918         2.728997
 C        -2.552825         0.018295         1.580032
 C        -3.070856        -0.750602         0.418867
 C        -1.756444        -1.205765         1.274396
 C        -0.384652        -1.101222         0.505643
 C        -0.256459         0.119503        -0.504833
 O         0.317982         0.157737        -1.553836
 O        -0.685887         1.356292         0.044503
 C        -1.613425         1.288501         1.277066
 H        -4.170777         0.949066         2.846505
 H        -4.111050        -0.710612         2.696649
 H        -2.838640         0.019642         3.622324
 H        -3.922864        -1.324301         0.659785
 H        -2.849291        -0.429081        -0.662980
 H        -1.869340        -2.082475         1.840909
 H         0.484007        -1.001669         1.247298
 H        -0.348104        -2.159685         0.039585
 H        -0.915089         1.273370         2.123449
 H        -2.073141         2.363479         1.250921
