19
Iteration:  1549charge 0 multiplicity 1
 C        -2.983220         0.081069         3.004679
 C        -2.563760         0.167951         1.421657
 C        -3.171053        -0.747649         0.333565
 C        -2.012327        -1.218978         1.114978
 C        -0.597617        -1.074884         0.524959
 C        -0.213465         0.094482        -0.356014
 O         0.566052         0.081521        -1.328173
 O        -0.774840         1.239027        -0.072934
 C        -1.731532         1.392112         1.066808
 H        -3.518737         0.975337         3.393564
 H        -3.727755        -0.728786         3.031912
 H        -2.075114        -0.064037         3.586346
 H        -4.163226        -1.130288         0.670715
 H        -2.954871        -0.566444        -0.770607
 H        -2.086245        -1.963707         1.892828
 H         0.131509        -0.894734         1.247369
 H        -0.252978        -1.908125        -0.019759
 H        -1.211679         1.501950         2.002866
 H        -2.287168         2.358890         0.931518
