19
Iteration:  3663
 C        -3.255594         0.193909         2.918790
 C        -2.402817         0.004420         1.630603
 C        -3.198510        -0.194956         0.263805
 C        -2.087958        -1.122648         0.824515
 C        -0.590219        -1.321709         0.212753
 C        -0.152590        -0.060569        -0.386586
 O         0.312286         0.069547        -1.465057
 O        -0.560597         1.139659         0.306768
 C        -1.427059         1.234908         1.409359
 H        -3.624663        -0.727044         3.386807
 H        -2.682861         0.889413         3.617047
 H        -4.153154         0.773296         2.630698
 H        -4.231525        -0.543361         0.651508
 H        -3.098584         0.688096        -0.312275
 H        -2.350676        -2.158048         1.010840
 H         0.022769        -1.731490         1.029711
 H        -0.506521        -1.992160        -0.606951
 H        -0.855814         1.407410         2.337073
 H        -1.923335         2.273563         1.196772
