19
Iteration:  4785
 C        -3.277572         0.248665         2.821798
 C        -2.414427         0.061642         1.639674
 C        -3.180662        -0.392475         0.316391
 C        -1.951502        -1.261771         0.910127
 C        -0.605089        -1.262566         0.211494
 C        -0.300141         0.029595        -0.390338
 O         0.338688         0.125363        -1.419238
 O        -0.575820         1.182676         0.230659
 C        -1.429958         1.244236         1.393980
 H        -3.869199         1.088972         2.839519
 H        -3.826146        -0.671373         2.894966
 H        -2.650200         0.170360         3.684222
 H        -4.224694        -0.567242         0.378688
 H        -2.897452         0.205584        -0.554745
 H        -2.280358        -2.144536         1.406207
 H         0.137720        -1.394817         1.069323
 H        -0.433979        -2.103546        -0.457097
 H        -0.823730         1.424544         2.364623
 H        -2.182261         2.089757         1.440173
