19
Iteration:  1409
 C        -3.156935         0.335938         2.890809
 C        -2.424846         0.109234         1.569309
 C        -3.078838        -0.669371         0.400588
 C        -1.867530        -1.219907         1.013177
 C        -0.506403        -1.189208         0.418246
 C        -0.286106        -0.010014        -0.502720
 O         0.429955         0.172262        -1.430277
 O        -0.708259         1.113944         0.221627
 C        -1.794650         1.319334         1.137150
 H        -4.144334         0.850575         2.754827
 H        -3.422163        -0.511067         3.533998
 H        -2.597196         1.084919         3.424960
 H        -3.925597        -1.449702         0.444015
 H        -2.876161        -0.325226        -0.611852
 H        -2.141464        -2.049418         1.640398
 H         0.337043        -1.119599         1.267817
 H        -0.245184        -2.124373        -0.079711
 H        -1.413499         1.929325         2.070569
 H        -2.493001         2.055412         0.660207
