19
Iteration:  4461charge 0 multiplicity 1
 C        -3.124086         0.214015         2.802006
 C        -2.465542         0.051641         1.496424
 C        -3.052748        -0.447712         0.133893
 C        -1.984556        -1.284526         0.872740
 C        -0.587606        -1.239367         0.386781
 C        -0.231715         0.078346        -0.259277
 O         0.188990         0.073696        -1.418313
 O        -0.660166         1.313162         0.218764
 C        -1.482532         1.220722         1.431512
 H        -3.010475         1.249751         3.202724
 H        -4.167597         0.081865         3.090927
 H        -2.671393        -0.153985         3.693280
 H        -4.032337        -0.917962         0.229207
 H        -2.761075         0.205636        -0.681500
 H        -2.363261        -2.223132         1.209990
 H         0.221484        -1.363643         1.213439
 H        -0.440232        -2.127717        -0.246248
 H        -0.832575         0.847253         2.267462
 H        -2.025218         2.132785         1.726006
