19
Iteration:  2042
 C        -3.127564         0.038265         2.926559
 C        -2.504814         0.073915         1.563990
 C        -3.164979        -0.662178         0.349921
 C        -1.843304        -1.105270         1.002267
 C        -0.426929        -1.150924         0.490104
 C        -0.189116         0.133297        -0.317767
 O         0.398747         0.026983        -1.385480
 O        -0.805589         1.272702        -0.018659
 C        -1.715172         1.421157         1.139398
 H        -3.811103         0.938851         2.993272
 H        -3.602617        -0.920159         3.095143
 H        -2.375838         0.166607         3.730528
 H        -3.915022        -1.453746         0.488623
 H        -2.982872        -0.251467        -0.617596
 H        -2.070302        -1.963306         1.669792
 H        -0.011182        -1.234796         1.435268
 H        -0.169072        -1.957648        -0.170933
 H        -1.209818         1.776835         2.070671
 H        -2.442541         2.164679         0.797701
