19
Iteration:  1299charge 0 multiplicity 1
 C        -3.356216         0.393597         2.891328
 C        -2.471757         0.050790         1.550923
 C        -3.024100        -0.680744         0.445726
 C        -1.818958        -1.298317         1.067880
 C        -0.437244        -1.223252         0.371024
 C        -0.233730         0.100242        -0.440328
 O         0.462106         0.108838        -1.440643
 O        -0.929455         1.210855         0.025675
 C        -1.552290         1.287182         1.292255
 H        -3.768532         1.435560         2.805564
 H        -4.250941        -0.225456         3.061819
 H        -2.674182         0.453831         3.740359
 H        -3.901985        -1.288613         0.505641
 H        -2.891823        -0.260556        -0.601687
 H        -2.059041        -2.206622         1.633370
 H         0.344455        -1.129014         1.097536
 H        -0.217551        -2.064669        -0.225065
 H        -0.982380         1.481767         2.273320
 H        -2.152436         2.167246         1.083520
