19
Iteration:  3582charge 0 multiplicity 1
 C        -3.272547         0.150934         2.957974
 C        -2.406176         0.092244         1.643478
 C        -3.219949        -0.172748         0.397903
 C        -2.053310        -1.190544         0.868884
 C        -0.678748        -1.300714         0.187237
 C        -0.263073        -0.038211        -0.472553
 O         0.585548         0.119272        -1.319053
 O        -0.754690         1.166019         0.042290
 C        -1.351574         1.173180         1.438586
 H        -4.379584         0.121135         2.694486
 H        -3.146720        -0.692996         3.664071
 H        -3.058031         1.130873         3.482379
 H        -4.205407        -0.599714         0.255509
 H        -2.879819         0.438588        -0.516505
 H        -2.341485        -2.064296         1.512762
 H         0.047249        -1.638066         0.902174
 H        -0.676038        -2.067624        -0.653270
 H        -0.587952         1.191243         2.306851
 H        -1.876630         2.081795         1.406524
