19
Iteration:   783
 C        -2.924947         0.353947         2.924194
 C        -2.530288         0.059054         1.465783
 C        -3.320357        -1.068557         0.910080
 C        -1.827713        -1.143231         0.966461
 C        -1.058416        -0.960104        -0.271346
 C        -0.068513         0.138589        -0.277483
 O         0.866406         0.086154        -0.997593
 O        -0.554987         1.229742         0.477986
 C        -2.023128         1.297002         0.565488
 H        -3.576011         1.141992         2.859910
 H        -3.335040        -0.546707         3.324491
 H        -2.105952         0.653911         3.544677
 H        -3.871534        -1.628023         1.667181
 H        -3.864161        -1.120533        -0.111004
 H        -1.249949        -1.759128         1.793940
 H        -0.541392        -1.853117        -0.567561
 H        -1.624153        -0.586180        -1.191287
 H        -2.067516         2.276594         0.973785
 H        -2.443650         1.282482        -0.459729
