19
Iteration:   973charge 0 multiplicity 1
 C        -2.393513         0.383213         2.834815
 C        -2.525120         0.096986         1.357506
 C        -3.341747        -1.168278         1.070296
 C        -1.791775        -1.127711         0.888715
 C        -1.247586        -0.950775        -0.551344
 C        -0.193359         0.162505        -0.309574
 O         0.987805        -0.031442        -0.298524
 O        -0.726556         1.349161         0.255452
 C        -2.254375         1.295975         0.395595
 H        -2.758971         1.332419         3.165660
 H        -2.966784        -0.360321         3.345218
 H        -1.469360         0.161526         3.247952
 H        -3.802520        -1.592086         1.913200
 H        -3.881704        -1.453011         0.149047
 H        -1.130181        -1.512855         1.601684
 H        -0.543060        -1.791663        -0.961582
 H        -2.030219        -0.731449        -1.365590
 H        -2.548396         2.321534         0.887659
 H        -2.821942         1.276956        -0.597155
