19
Iteration:  1344
 C        -3.212928         0.187374         2.761967
 C        -2.440353         0.125037         1.483481
 C        -3.054733        -0.839833         0.450638
 C        -1.872112        -1.282033         1.212012
 C        -0.562076        -1.194211         0.382271
 C        -0.403448         0.074574        -0.439995
 O         0.306354         0.085138        -1.447035
 O        -0.465474         1.274498         0.285722
 C        -1.745415         1.523565         1.062620
 H        -3.563216         1.219110         3.102130
 H        -4.175836        -0.330033         2.650470
 H        -2.576222        -0.041756         3.628545
 H        -4.106855        -1.237555         0.564833
 H        -2.776241        -0.750631        -0.625371
 H        -1.835542        -1.915151         2.081115
 H         0.285103        -1.207751         0.993239
 H        -0.369169        -1.917537        -0.382462
 H        -1.247536         2.099791         1.972549
 H        -2.353580         2.228348         0.530439
