19
Iteration:  2661charge 0 multiplicity 1
 C        -3.206889         0.207879         2.862407
 C        -2.459975         0.138559         1.485396
 C        -3.083723        -0.761362         0.387161
 C        -1.797450        -1.185995         1.157831
 C        -0.564043        -1.264322         0.347757
 C        -0.289496         0.069365        -0.454596
 O         0.559156         0.188638        -1.282947
 O        -0.954862         1.261033        -0.010466
 C        -1.604185         1.361938         1.219724
 H        -3.906936         1.014193         3.109992
 H        -3.834754        -0.701138         3.042480
 H        -2.486000         0.208279         3.737269
 H        -4.080449        -1.354175         0.485061
 H        -3.055454        -0.370826        -0.673121
 H        -1.891110        -2.007504         1.852240
 H         0.393975        -1.268236         0.998688
 H        -0.499455        -2.108203        -0.341285
 H        -0.893384         1.341961         2.073355
 H        -2.109791         2.301836         1.223221
