19
Iteration:  2633charge 0 multiplicity 1
 C        -3.421984         0.384212         2.859124
 C        -2.283747        -0.030396         1.724545
 C        -3.037023        -0.618378         0.406809
 C        -1.796668        -1.328735         1.095641
 C        -0.439073        -1.207169         0.341117
 C        -0.141082         0.135824        -0.364439
 O         0.428820         0.208247        -1.468874
 O        -0.941121         1.171080         0.023942
 C        -1.623649         1.220354         1.253058
 H        -3.912640         1.373298         2.623423
 H        -4.343386        -0.203222         2.928789
 H        -2.999399         0.295818         3.829324
 H        -4.061807        -0.932627         0.363809
 H        -2.848341        -0.188406        -0.499546
 H        -1.870419        -2.314612         1.641692
 H         0.392011        -1.460224         0.956629
 H        -0.410092        -1.864892        -0.533462
 H        -1.067249         1.762206         2.029177
 H        -2.519681         1.828775         0.877097
