19
Iteration:    30
 C        -3.327419         0.106811         2.755565
 C        -2.379647         0.058764         1.544730
 C        -2.862053        -0.348032         0.184531
 C        -1.925422        -1.192468         0.962979
 C        -0.540147        -1.270534         0.385135
 C        -0.273829         0.020425        -0.297504
 O         0.152636        -0.018867        -1.445978
 O        -0.696395         1.293247         0.210999
 C        -1.488094         1.326600         1.464983
 H        -4.416035        -0.252730         2.518899
 H        -3.010094        -0.328088         3.678732
 H        -3.368743         1.168104         2.893718
 H        -3.964061        -0.592045        -0.036078
 H        -2.409279         0.176779        -0.643957
 H        -2.197736        -2.054150         1.469698
 H         0.177362        -1.295860         1.242585
 H        -0.522370        -2.052235        -0.450074
 H        -0.807541         1.164673         2.310496
 H        -1.987038         2.289522         1.659026
