19
Iteration:  1431charge 0 multiplicity 1
 C        -3.251073         0.297733         2.871053
 C        -2.448079         0.036034         1.556724
 C        -3.098819        -0.695786         0.415593
 C        -1.846368        -1.273248         1.171724
 C        -0.562006        -1.193725         0.315295
 C        -0.236458         0.095370        -0.398562
 O         0.487399         0.047802        -1.352929
 O        -0.798368         1.364570        -0.016139
 C        -1.622164         1.272047         1.176354
 H        -4.273895         0.738207         2.757759
 H        -3.386148        -0.628155         3.447962
 H        -2.667513         0.990381         3.456156
 H        -4.130161        -1.041815         0.730972
 H        -2.964538        -0.272967        -0.579689
 H        -2.011174        -2.117919         1.820327
 H         0.334076        -1.366562         1.081218
 H        -0.417309        -1.978584        -0.436414
 H        -1.054747         1.640917         2.102549
 H        -2.431545         2.014095         1.106541
