19
Iteration:  1593charge 0 multiplicity 1
 C        -3.288646         0.249759         2.838131
 C        -2.365008         0.133571         1.629348
 C        -3.043040        -0.680425         0.469259
 C        -1.840158        -1.245960         1.113049
 C        -0.496657        -1.232285         0.349151
 C        -0.243468         0.066965        -0.427043
 O         0.528913         0.104592        -1.392601
 O        -0.907250         1.203859         0.023363
 C        -1.694226         1.388025         1.178055
 H        -4.273801         0.703141         2.633096
 H        -3.426429        -0.833475         2.978056
 H        -2.869727         0.675836         3.753270
 H        -4.050764        -0.954865         0.753354
 H        -2.982498        -0.087032        -0.495264
 H        -1.857012        -2.183693         1.634510
 H         0.152531        -1.332508         1.129412
 H        -0.346431        -2.045227        -0.311530
 H        -0.970786         1.770018         1.937156
 H        -2.425952         2.232121         0.980296
