19
Iteration:   885
 C        -2.082059         0.130363         2.938814
 C        -2.493879         0.100764         1.427706
 C        -3.540474        -0.831355         0.891255
 C        -2.112212        -1.254624         0.807827
 C        -1.058093        -1.150187        -0.283466
 C        -0.200205         0.148942        -0.159728
 O         1.064430         0.202586        -0.214920
 O        -0.877272         1.410406        -0.095067
 C        -2.222573         1.199469         0.404538
 H        -2.932662         0.334573         3.591289
 H        -1.595355        -0.750164         3.331651
 H        -1.417231         0.935439         2.929145
 H        -4.121552        -1.381152         1.651321
 H        -4.028178        -0.499591         0.051768
 H        -1.867431        -1.995853         1.505632
 H        -0.162610        -1.856767        -0.377508
 H        -1.532554        -0.966611        -1.331375
 H        -2.621924         2.277179         0.672753
 H        -2.950159         1.020277        -0.464378
