19
Iteration:   993charge 0 multiplicity 1
 C        -2.511320         0.443460         2.965924
 C        -2.534437         0.110826         1.413727
 C        -3.348091        -1.138337         0.976685
 C        -1.874590        -1.147388         0.799537
 C        -1.147072        -1.048350        -0.463127
 C        -0.166108         0.072350        -0.286114
 O         1.030547         0.165771        -0.444439
 O        -0.779144         1.218666         0.182764
 C        -2.140608         1.285895         0.516072
 H        -2.684087         1.506402         3.101989
 H        -3.181759        -0.143937         3.580832
 H        -1.534783         0.296620         3.398951
 H        -3.718943        -1.728554         1.756453
 H        -4.066312        -0.977344         0.196710
 H        -1.453482        -1.800279         1.493632
 H        -0.572333        -1.952099        -0.779045
 H        -1.838475        -0.813556        -1.319383
 H        -2.356781         2.273540         1.026593
 H        -2.690768         1.283194        -0.421141
