19
Iteration:  1102
 C        -2.957620         0.450069         2.968632
 C        -2.478832         0.058688         1.486838
 C        -3.264633        -0.893695         0.626457
 C        -1.939528        -1.329251         1.021555
 C        -0.811853        -1.239014         0.043340
 C        -0.176375         0.155473        -0.325463
 O         0.638007         0.249114        -1.181238
 O        -0.529375         1.235717         0.371987
 C        -1.893638         1.247314         0.749319
 H        -3.969421         0.982712         2.865559
 H        -3.084177        -0.356370         3.742310
 H        -2.253597         1.249453         3.312902
 H        -4.005987        -1.500296         1.100437
 H        -3.404507        -0.605438        -0.397063
 H        -1.940908        -2.086309         1.791880
 H         0.117888        -1.774188         0.297545
 H        -1.152346        -1.545720        -0.930184
 H        -2.097106         2.166938         1.364893
 H        -2.421505         1.355256        -0.142146
