19
Iteration:   303charge 0 multiplicity 1
 C        -2.908259         0.266255         3.026084
 C        -2.468455         0.047353         1.568011
 C        -3.333427        -0.682946         0.456685
 C        -2.020125        -1.206669         0.986118
 C        -1.000011        -1.228045        -0.126073
 C        -0.166263         0.062420        -0.395455
 O         0.961253         0.124768        -0.815844
 O        -0.831637         1.245085        -0.057040
 C        -1.717845         1.346339         1.078637
 H        -2.964519         1.428977         3.189176
 H        -3.795630        -0.188213         3.374470
 H        -2.074261        -0.057512         3.612973
 H        -4.130012        -1.403229         0.806548
 H        -3.283599        -0.235195        -0.525059
 H        -2.006488        -2.093036         1.502254
 H        -0.305368        -2.038901        -0.098922
 H        -1.507982        -1.402906        -1.139154
 H        -1.040557         1.597623         1.954479
 H        -2.341166         2.255054         1.061452
