19
Iteration:  4910
 C        -3.261816         0.126094         2.814122
 C        -2.435687         0.181367         1.508978
 C        -3.143657        -0.430791         0.248143
 C        -2.036620        -1.146434         0.986553
 C        -0.608045        -1.192870         0.359428
 C        -0.246556         0.083140        -0.346065
 O         0.337420         0.084813        -1.448465
 O        -0.661040         1.199855         0.151028
 C        -1.351284         1.177028         1.465375
 H        -3.900813         0.934874         2.899938
 H        -3.761010        -0.828061         2.960566
 H        -2.435706         0.230699         3.504339
 H        -4.226769        -0.669009         0.395847
 H        -2.999210        -0.134086        -0.846615
 H        -2.205148        -2.016794         1.711768
 H         0.118733        -1.593177         1.073339
 H        -0.660181        -1.941541        -0.462836
 H        -0.721135         0.787261         2.322213
 H        -1.788073         2.146932         1.645551
