19
Iteration:  1592charge 0 multiplicity 1
 C        -3.287397         0.243365         2.842475
 C        -2.364518         0.135154         1.620273
 C        -3.050817        -0.680042         0.467993
 C        -1.835690        -1.247155         1.110456
 C        -0.494934        -1.221766         0.342651
 C        -0.241580         0.067270        -0.420230
 O         0.531367         0.093609        -1.391831
 O        -0.901245         1.205221         0.019405
 C        -1.709054         1.394449         1.183281
 H        -4.269019         0.696373         2.650851
 H        -3.425802        -0.847168         2.990627
 H        -2.861704         0.650083         3.783947
 H        -4.072821        -0.933308         0.772504
 H        -3.007798        -0.109929        -0.518792
 H        -1.865600        -2.179421         1.642542
 H         0.186448        -1.320413         1.143127
 H        -0.353338        -2.049150        -0.306444
 H        -0.939275         1.777303         1.942246
 H        -2.423891         2.274137         0.978701
