19
Iteration:   436
 C        -3.285245         0.299804         2.918095
 C        -2.432847         0.005017         1.672319
 C        -3.135328        -0.536269         0.400148
 C        -1.852275        -1.215680         1.003767
 C        -0.581223        -1.272502         0.283442
 C        -0.173789         0.080109        -0.452271
 O         0.623691         0.172343        -1.360844
 O        -0.901724         1.208705         0.005615
 C        -1.619110         1.225823         1.307772
 H        -4.097155        -0.561477         3.132699
 H        -2.816994         0.624028         3.835325
 H        -3.972218         1.143938         2.726588
 H        -4.096009        -0.987309         0.479550
 H        -3.019005        -0.039192        -0.590629
 H        -2.040768        -2.141558         1.609788
 H         0.286540        -1.462774         1.024882
 H        -0.549586        -2.110170        -0.458910
 H        -0.776165         1.330443         2.039859
 H        -2.267437         2.108356         1.169576
