19
Iteration:  3902charge 0 multiplicity 1
 C        -3.172163         0.098054         2.915278
 C        -2.438121         0.148142         1.537348
 C        -3.202316        -0.320626         0.323443
 C        -2.126088        -1.262320         1.015223
 C        -0.835858        -1.237895         0.169364
 C        -0.291807         0.046584        -0.451333
 O         0.611820         0.034115        -1.254492
 O        -0.698860         1.298916         0.078667
 C        -1.326676         1.217712         1.412860
 H        -3.515349        -0.917368         2.920032
 H        -2.548317         0.497592         3.735113
 H        -4.063043         0.774297         2.838748
 H        -4.233964        -0.587151         0.569193
 H        -3.050668         0.005470        -0.734303
 H        -2.509903        -2.034491         1.577880
 H         0.207537        -1.485684         0.659573
 H        -0.902896        -1.964071        -0.627503
 H        -0.539723         0.872646         2.138101
 H        -1.491906         2.273740         1.559488
