19
Iteration:  2454
 C        -3.262520         0.331571         2.799230
 C        -2.494783         0.008545         1.516331
 C        -3.058417        -0.879461         0.491943
 C        -1.827593        -1.325483         1.186033
 C        -0.603925        -1.136978         0.311357
 C        -0.294184         0.122189        -0.428600
 O         0.466984         0.225770        -1.347475
 O        -0.775439         1.305853         0.022462
 C        -1.565601         1.295067         1.229652
 H        -3.800079         1.239668         2.503382
 H        -3.890384        -0.538466         2.996094
 H        -2.523959         0.586919         3.593333
 H        -4.092342        -1.273113         0.800030
 H        -3.081191        -0.556875        -0.623339
 H        -1.935375        -2.283005         1.676878
 H         0.219509        -1.223452         1.019763
 H        -0.439028        -1.923201        -0.434166
 H        -0.802060         1.317144         2.093989
 H        -2.196808         2.204430         1.188769
