19
Iteration:   328charge 0 multiplicity 1
 C        -2.872003         0.253844         3.057968
 C        -2.406204         0.114273         1.574906
 C        -3.331788        -0.486726         0.573259
 C        -2.023811        -1.271018         0.826949
 C        -0.817230        -1.319135        -0.165182
 C        -0.144511         0.055064        -0.301820
 O         0.911130         0.146888        -0.883500
 O        -0.869777         1.144693         0.040255
 C        -1.882666         1.346508         0.974268
 H        -2.531406         1.247610         3.547544
 H        -4.026636         0.264174         2.997233
 H        -2.582148        -0.644635         3.713567
 H        -4.146039        -0.853433         1.126778
 H        -3.406247        -0.078296        -0.435293
 H        -2.016399        -2.199796         1.439095
 H         0.000339        -2.073948         0.168337
 H        -1.010838        -1.635942        -1.206118
 H        -1.347693         1.913121         1.847338
 H        -2.604118         2.116431         0.708676
