19
Iteration:  2486charge 0 multiplicity 1
 C        -3.247311         0.182603         2.660495
 C        -2.469608         0.119723         1.463291
 C        -3.000660        -0.807415         0.350797
 C        -1.828365        -1.209274         1.268327
 C        -0.479954        -1.077414         0.479360
 C        -0.284518         0.157346        -0.425081
 O         0.322415         0.039797        -1.472872
 O        -0.909448         1.350977         0.023643
 C        -1.452791         1.299124         1.395005
 H        -3.845027         1.094017         2.675904
 H        -4.032958        -0.606654         2.731789
 H        -2.779744         0.075212         3.672874
 H        -4.039943        -1.051149         0.738066
 H        -2.793753        -0.632924        -0.808541
 H        -2.059343        -2.144581         1.773179
 H         0.325587        -1.308887         1.225805
 H        -0.424775        -1.950094        -0.221857
 H        -0.709677         1.116914         2.196750
 H        -1.857048         2.223944         1.774727
