19
Iteration:  1047charge 0 multiplicity 1
 C        -2.570795         0.245913         2.990205
 C        -2.528948         0.141036         1.413155
 C        -3.492809        -0.882380         0.792345
 C        -1.988150        -1.196250         0.952639
 C        -0.844426        -1.186788        -0.104360
 C        -0.150040         0.153889        -0.213194
 O         0.831508         0.197097        -0.860625
 O        -0.645681         1.298059         0.230779
 C        -2.094818         1.238316         0.520357
 H        -3.439830         0.866144         3.362451
 H        -2.723312        -0.743255         3.483786
 H        -1.627760         0.639081         3.429737
 H        -4.265708        -1.362303         1.277694
 H        -3.705535        -0.660348        -0.248165
 H        -1.992968        -1.904492         1.708240
 H         0.063520        -1.697454         0.292062
 H        -1.019893        -1.582587        -1.090829
 H        -2.420103         2.209461         0.966512
 H        -2.547710         1.193453        -0.407167
