19
Iteration:   700
 C        -2.830248         0.127390         3.067453
 C        -2.508078         0.074421         1.610863
 C        -3.369766        -0.654045         0.437230
 C        -2.045102        -1.224240         0.956238
 C        -0.645431        -1.215413         0.275690
 C        -0.186090         0.113678        -0.400213
 O         0.848979         0.119154        -1.065289
 O        -0.845133         1.259714        -0.121859
 C        -1.896733         1.380949         0.943118
 H        -3.844334         0.675304         3.361249
 H        -3.044147        -0.909801         3.506990
 H        -1.951222         0.575877         3.684246
 H        -4.223304        -1.158276         0.707214
 H        -3.397698        -0.107509        -0.494209
 H        -2.179174        -2.136625         1.512127
 H         0.151924        -1.257113         1.053935
 H        -0.309196        -1.929279        -0.454963
 H        -1.472027         2.059362         1.739646
 H        -2.768091         1.931072         0.578826
