19
Iteration:  2280charge 0 multiplicity 1
 C        -3.157709         0.083061         2.862937
 C        -2.453921         0.080287         1.476542
 C        -3.135268        -0.696098         0.429821
 C        -1.823899        -1.160129         1.244898
 C        -0.631018        -1.136498         0.349413
 C        -0.271450         0.122504        -0.424711
 O         0.626319         0.190875        -1.208417
 O        -0.992148         1.256604        -0.203376
 C        -1.582255         1.276532         1.224831
 H        -3.461961         1.139745         3.058323
 H        -4.113411        -0.417637         2.792561
 H        -2.436309        -0.348003         3.615326
 H        -4.161087        -1.125556         0.723261
 H        -2.908539        -0.730808        -0.662588
 H        -1.786030        -1.893984         2.057085
 H         0.295686        -1.285825         0.929750
 H        -0.717219        -1.950705        -0.327672
 H        -0.906259         1.377770         2.046099
 H        -2.049559         2.283135         1.271491
