19
Iteration:  4301
 C        -3.162846         0.015817         2.962686
 C        -2.438219         0.100759         1.600795
 C        -3.215175        -0.317169         0.358036
 C        -2.092016        -1.195783         0.853233
 C        -0.755977        -1.230956         0.223601
 C        -0.227584         0.026630        -0.424451
 O         0.621293         0.119655        -1.263954
 O        -0.719071         1.199185         0.123746
 C        -1.472067         1.312999         1.337418
 H        -4.136959        -0.343214         2.600310
 H        -2.671720        -0.654335         3.642986
 H        -3.288990         1.038409         3.365058
 H        -4.160584        -0.831180         0.610841
 H        -3.091582         0.162338        -0.684619
 H        -2.441350        -2.165197         1.222371
 H        -0.001635        -1.540364         0.935801
 H        -0.678212        -2.000858        -0.576775
 H        -0.594807         1.376985         1.966208
 H        -1.759231         2.347791         1.118269
