19
Iteration:  2773charge 0 multiplicity 1
 C        -3.093707         0.194570         2.882026
 C        -2.411886         0.108693         1.482970
 C        -3.176509        -0.896895         0.569757
 C        -1.883620        -1.190998         1.120547
 C        -0.714911        -1.153895         0.170639
 C        -0.267023         0.207675        -0.418145
 O         0.732917         0.157165        -1.069615
 O        -1.029993         1.331151        -0.171296
 C        -1.561186         1.281412         1.174546
 H        -3.776249         1.048402         2.936282
 H        -3.862730        -0.560374         2.769451
 H        -2.429437        -0.061850         3.714728
 H        -4.019148        -1.435421         0.854117
 H        -3.067965        -0.678973        -0.536165
 H        -1.913838        -1.981663         1.919399
 H         0.163832        -1.423016         0.905903
 H        -0.719068        -1.876664        -0.634148
 H        -0.798190         1.435874         1.908261
 H        -2.277853         2.161148         1.114815
