19
Iteration:  2183charge 0 multiplicity 1
 C        -3.297684         0.113611         2.743004
 C        -2.548169         0.130862         1.444850
 C        -2.990591        -0.742974         0.320455
 C        -1.734853        -1.136824         1.195099
 C        -0.513650        -1.124169         0.427258
 C        -0.233868         0.070893        -0.362195
 O         0.204189         0.051071        -1.490892
 O        -0.677412         1.299044         0.152836
 C        -1.606821         1.364405         1.317434
 H        -4.401414         0.216280         2.552046
 H        -3.097121        -0.835059         3.213451
 H        -2.929674         0.921061         3.365179
 H        -3.802986        -1.340373         0.631242
 H        -2.781631        -0.437686        -0.756654
 H        -1.843952        -2.041654         1.761247
 H         0.410442        -1.126694         1.215341
 H        -0.451219        -1.968163        -0.253973
 H        -0.983718         1.597633         2.241310
 H        -2.206439         2.343433         1.291369
