19
Iteration:  2849charge 0 multiplicity 1
 C        -3.099571         0.185096         2.958751
 C        -2.441448         0.094027         1.571177
 C        -3.003194        -0.588503         0.325734
 C        -1.818414        -1.293432         1.054843
 C        -0.459860        -1.272013         0.332946
 C        -0.305031         0.044609        -0.373412
 O         0.484362         0.156103        -1.249429
 O        -0.889071         1.269292        -0.028098
 C        -1.854781         1.370612         1.170668
 H        -4.097797         0.556508         2.923469
 H        -3.191270        -0.869210         3.096370
 H        -2.488624         0.752280         3.682379
 H        -3.957932        -1.023956         0.316187
 H        -2.831034        -0.169324        -0.701623
 H        -2.084903        -2.205007         1.698778
 H         0.253144        -1.213341         1.210869
 H        -0.209616        -2.035955        -0.345840
 H        -1.307343         1.757494         2.033340
 H        -2.584676         2.197871         0.924407
