19
Iteration:   313charge 0 multiplicity 1
 C        -2.891840         0.284315         3.034824
 C        -2.495272         0.069125         1.583328
 C        -3.310225        -0.644196         0.524221
 C        -1.964991        -1.201990         0.874894
 C        -0.898228        -1.248296        -0.191870
 C        -0.195676         0.023208        -0.321729
 O         0.913093         0.135888        -0.830456
 O        -0.843400         1.179256        -0.046140
 C        -1.731392         1.348445         1.122186
 H        -2.737457         1.363062         3.290171
 H        -3.887119         0.086601         3.299802
 H        -2.300879        -0.229042         3.737600
 H        -4.299117        -1.204030         0.585198
 H        -3.355634        -0.032535        -0.378926
 H        -2.090210        -2.015801         1.520230
 H        -0.165822        -1.977776         0.008209
 H        -1.404556        -1.441286        -1.187165
 H        -1.238174         1.895304         1.903277
 H        -2.529943         1.977915         0.639267
