19
Iteration:  1908
 C        -2.923364         0.184513         2.934847
 C        -2.429300         0.011585         1.516201
 C        -3.136645        -0.603349         0.375053
 C        -1.967979        -1.283519         1.003620
 C        -0.535072        -1.157341         0.429501
 C        -0.178017         0.164112        -0.281573
 O         0.570173         0.081664        -1.223029
 O        -0.957114         1.278575        -0.076279
 C        -1.798199         1.327491         1.084467
 H        -3.422645         1.180840         3.042296
 H        -3.776520        -0.489539         3.209581
 H        -2.171082        -0.022813         3.732171
 H        -3.928788        -1.326343         0.598764
 H        -3.134342        -0.170608        -0.664784
 H        -2.167672        -2.241316         1.599095
 H         0.160958        -1.455980         1.146057
 H        -0.359305        -1.877293        -0.320005
 H        -1.480153         2.030793         1.900322
 H        -2.666079         1.925384         0.685485
