19
Iteration:  4082charge 0 multiplicity 1
 C        -3.134444         0.246511         2.772363
 C        -2.382324         0.084289         1.499317
 C        -3.048992        -0.347056         0.152732
 C        -2.057954        -1.251172         0.853676
 C        -0.630704        -1.338126         0.355400
 C        -0.378003         0.029295        -0.339608
 O         0.295817         0.112882        -1.341855
 O        -0.756542         1.289573         0.229802
 C        -1.321086         1.145742         1.495861
 H        -4.218002         0.118795         2.669964
 H        -3.064660        -0.534900         3.488921
 H        -3.092808         1.149052         3.380553
 H        -4.080757        -0.669995         0.194133
 H        -2.616771         0.167675        -0.661298
 H        -2.253146        -2.145390         1.446961
 H         0.096592        -1.547141         1.234508
 H        -0.404728        -2.055439        -0.519201
 H        -0.544320         1.149644         2.220505
 H        -1.775388         2.132607         1.747197
