19
Iteration:  2281charge 0 multiplicity 1
 C        -3.163078         0.087271         2.864559
 C        -2.449109         0.074436         1.478818
 C        -3.126734        -0.692016         0.427830
 C        -1.821992        -1.157504         1.250975
 C        -0.631074        -1.143739         0.339581
 C        -0.271323         0.122624        -0.421728
 O         0.627398         0.189553        -1.201252
 O        -1.004613         1.253222        -0.206498
 C        -1.580167         1.281191         1.225608
 H        -3.451707         1.161991         3.063968
 H        -4.120309        -0.400461         2.786426
 H        -2.425092        -0.344063         3.570142
 H        -4.180473        -1.109901         0.722432
 H        -2.940244        -0.733855        -0.659671
 H        -1.791022        -1.917849         2.028071
 H         0.349926        -1.276910         0.925559
 H        -0.690145        -1.967063        -0.379254
 H        -0.879535         1.367194         2.074760
 H        -2.078872         2.312678         1.284234
