19
Iteration:   210
 C        -2.945085         0.156230         2.988719
 C        -2.485289         0.059953         1.546020
 C        -3.208508        -0.352628         0.263546
 C        -2.123062        -1.204232         0.779564
 C        -0.750285        -1.334082         0.169347
 C        -0.175382         0.040237        -0.269269
 O         0.690126         0.113209        -1.077689
 O        -0.885130         1.177589         0.018885
 C        -1.566654         1.337050         1.272613
 H        -3.562858        -0.554556         3.424228
 H        -1.960425         0.076905         3.542522
 H        -3.353278         1.160134         3.275905
 H        -4.200297        -0.737667         0.497467
 H        -3.120223         0.178801        -0.680917
 H        -2.516051        -2.127741         1.430884
 H        -0.043483        -1.900425         0.874882
 H        -0.718586        -1.918976        -0.744901
 H        -0.864199         1.586674         2.103906
 H        -2.248593         2.188751         1.100165
