19
Iteration:  1572
 C        -3.172960         0.026351         2.908771
 C        -2.552604         0.140046         1.521134
 C        -3.200203        -0.674428         0.454851
 C        -1.859986        -1.095343         1.122041
 C        -0.509366        -1.140140         0.425267
 C        -0.235589         0.106994        -0.390302
 O         0.552393        -0.033400        -1.343848
 O        -0.786649         1.328158        -0.091205
 C        -1.672766         1.389922         1.172698
 H        -3.924375         0.839762         2.958720
 H        -3.626658        -0.946881         3.128294
 H        -2.386646         0.353960         3.569932
 H        -3.932964        -1.417316         0.701841
 H        -3.107309        -0.360842        -0.635197
 H        -1.862954        -1.884523         1.856843
 H         0.259964        -1.307927         1.116770
 H        -0.414915        -1.869628        -0.344228
 H        -1.184992         1.721441         2.053891
 H        -2.389327         2.154777         0.861500
