19
Iteration:   222
 C        -2.919176         0.178818         3.078771
 C        -2.468132         0.086847         1.608491
 C        -3.177336        -0.319239         0.287062
 C        -2.115593        -1.193209         0.881149
 C        -0.809407        -1.292210         0.136304
 C        -0.161301         0.033809        -0.296050
 O         0.815702         0.141242        -1.060958
 O        -0.891635         1.159678        -0.034302
 C        -1.692061         1.205062         1.188925
 H        -3.777130        -0.370760         3.180266
 H        -2.121576        -0.282941         3.724655
 H        -3.067011         1.230852         3.395771
 H        -4.154647        -0.779513         0.318927
 H        -3.055133         0.364358        -0.602147
 H        -2.596897        -2.271893         1.154359
 H        -0.074950        -2.019964         0.609437
 H        -1.079859        -1.674466        -0.845560
 H        -1.041847         1.650130         1.929282
 H        -2.451584         1.976997         0.939726
