19
Iteration:  2817
 C        -3.141400         0.349259         2.945018
 C        -2.465218         0.038936         1.609076
 C        -3.180046        -0.825831         0.414502
 C        -1.892110        -1.218628         1.081003
 C        -0.622171        -1.200320         0.245835
 C        -0.097935         0.118444        -0.363318
 O         0.658340         0.319304        -1.298903
 O        -0.915974         1.173114        -0.077530
 C        -1.744790         1.244145         1.236009
 H        -4.034404         0.868764         2.636697
 H        -3.610173        -0.557135         3.300022
 H        -2.591234         0.723895         3.814931
 H        -3.939141        -1.405420         0.797948
 H        -3.156678        -0.505702        -0.653905
 H        -1.741759        -2.134691         1.714445
 H         0.251400        -1.623296         0.891622
 H        -0.670272        -1.889919        -0.583993
 H        -1.023518         1.466171         1.982076
 H        -2.395947         2.150625         0.990160
