19
Iteration:  2436
 C        -3.253130         0.334486         2.898611
 C        -2.469216         0.022167         1.598665
 C        -3.180097        -0.747491         0.465528
 C        -1.839149        -1.214907         1.088252
 C        -0.457467        -1.231870         0.278354
 C        -0.147500         0.126321        -0.479145
 O         0.589402         0.214461        -1.446108
 O        -0.865478         1.193828         0.093322
 C        -1.735035         1.268050         1.230915
 H        -4.006918         1.199235         2.691986
 H        -3.685859        -0.583181         3.359207
 H        -2.631611         0.737392         3.706714
 H        -3.975415        -1.325883         0.728560
 H        -3.105360        -0.352057        -0.559980
 H        -1.845243        -1.922484         1.914153
 H         0.361471        -1.552163         0.964218
 H        -0.565240        -2.063454        -0.394814
 H        -1.291766         1.699234         2.124098
 H        -2.612751         1.987318         1.016536
