19
Iteration:   725
 C        -2.826017         0.303819         2.976762
 C        -2.458290         0.085049         1.578901
 C        -3.356093        -0.708522         0.555811
 C        -1.981289        -1.242473         0.886512
 C        -0.720697        -1.251516         0.097624
 C        -0.132659         0.101309        -0.317102
 O         0.815267         0.167294        -1.031536
 O        -0.765507         1.218748         0.088784
 C        -1.999273         1.308235         0.879143
 H        -3.893515         0.535425         3.148118
 H        -2.756116        -0.615611         3.608722
 H        -2.167748         1.111232         3.462459
 H        -4.134184        -1.341495         1.095738
 H        -3.672234        -0.188175        -0.336580
 H        -2.000224        -2.101394         1.492740
 H         0.161001        -1.827737         0.521091
 H        -0.778801        -1.629795        -0.898663
 H        -1.778209         2.066116         1.642313
 H        -2.831042         1.702093         0.352920
