19
Iteration:   116
 C        -3.306129         0.304542         2.610364
 C        -2.311553         0.109093         1.562800
 C        -2.903992        -0.460042         0.178203
 C        -1.983149        -1.296865         0.986081
 C        -0.569284        -1.349839         0.388272
 C        -0.309166         0.057478        -0.335170
 O         0.083867         0.190045        -1.453421
 O        -0.696079         1.192071         0.305774
 C        -1.358637         1.213458         1.511174
 H        -4.005114        -0.667862         2.739315
 H        -2.847141         0.447371         3.640427
 H        -3.968578         1.184552         2.419978
 H        -3.941058        -0.762292        -0.151837
 H        -2.358758         0.117035        -0.594505
 H        -2.312520        -2.039049         1.721339
 H         0.180133        -1.506762         1.155555
 H        -0.318591        -2.198502        -0.314658
 H        -0.555041         1.237576         2.360495
 H        -1.944122         2.176292         1.456738
