19
Iteration:  4882
 C        -3.433249         0.095856         2.819079
 C        -2.376541         0.132130         1.682330
 C        -2.952799        -0.238622         0.332027
 C        -1.945910        -1.222067         0.912930
 C        -0.537424        -1.254411         0.339972
 C        -0.305979        -0.019127        -0.460611
 O         0.299712         0.055047        -1.457478
 O        -0.707934         1.200948         0.086571
 C        -1.392123         1.255076         1.494895
 H        -4.074307         1.088075         2.974673
 H        -4.087753        -0.806452         2.898146
 H        -2.739334         0.040221         3.732891
 H        -3.981221        -0.500814         0.299828
 H        -2.704601         0.450908        -0.471882
 H        -2.335135        -2.156310         1.244430
 H         0.188447        -1.375619         1.195128
 H        -0.472690        -2.152202        -0.250090
 H        -0.662081         1.156858         2.294504
 H        -2.031700         2.207873         1.450721
