19
Iteration:   752charge 0 multiplicity 1
 C        -2.867415         0.307154         2.929160
 C        -2.569133         0.126220         1.455672
 C        -3.338671        -0.913849         0.706526
 C        -1.898696        -1.249105         1.068474
 C        -0.999190        -1.272731        -0.087457
 C        -0.192457         0.105525        -0.367684
 O         0.880343         0.251656        -1.006923
 O        -0.553938         1.249832         0.283266
 C        -1.959327         1.359591         0.750146
 H        -3.861566         0.676982         3.170358
 H        -2.876355        -0.629035         3.460698
 H        -2.237170         1.056998         3.266361
 H        -4.188308        -1.316808         1.176685
 H        -3.431759        -0.827841        -0.409715
 H        -1.409762        -1.788991         1.981269
 H        -0.171629        -1.953445        -0.021280
 H        -1.350396        -1.598582        -1.133246
 H        -1.830667         2.090593         1.559244
 H        -2.707301         1.754237        -0.022527
