19
Iteration:  1308charge 0 multiplicity 1
 C        -3.329814         0.404376         2.866851
 C        -2.528140         0.079207         1.606465
 C        -3.098662        -0.716228         0.406742
 C        -1.806591        -1.263864         1.070661
 C        -0.384924        -1.217696         0.381922
 C        -0.151744         0.084118        -0.393822
 O         0.399822         0.135253        -1.503724
 O        -0.822261         1.161400         0.083456
 C        -1.662128         1.329386         1.273506
 H        -3.568352         1.417002         2.699840
 H        -4.218678        -0.195820         3.002830
 H        -2.789405         0.246703         3.778457
 H        -3.908398        -1.414133         0.486289
 H        -2.957904        -0.308697        -0.621832
 H        -1.821631        -2.080062         1.821705
 H         0.481437        -1.537971         1.071664
 H        -0.431000        -1.998521        -0.367786
 H        -0.965874         1.518332         2.090213
 H        -2.280656         2.250598         1.097733
