19
Iteration:  4658
 C        -3.094267         0.076773         2.967464
 C        -2.478563         0.143004         1.613422
 C        -3.156636        -0.373616         0.344316
 C        -2.007724        -1.173989         0.903828
 C        -0.695416        -1.268802         0.178545
 C        -0.174890         0.022722        -0.403321
 O         0.584528         0.076767        -1.273587
 O        -0.837078         1.183696         0.068369
 C        -1.536035         1.329734         1.336264
 H        -3.523004         0.943117         3.549967
 H        -4.010615        -0.563588         2.939418
 H        -2.441272        -0.403003         3.749885
 H        -4.204772        -0.449260         0.295594
 H        -2.921047         0.108672        -0.593430
 H        -2.484730        -1.986365         1.334470
 H         0.140713        -1.489498         0.833833
 H        -0.621177        -1.991656        -0.633776
 H        -0.876766         1.355694         2.199336
 H        -2.051415         2.274224         1.209131
