19
Iteration:  2625charge 0 multiplicity 1
 C        -3.477335         0.416619         2.894500
 C        -2.350796        -0.035549         1.737260
 C        -3.012722        -0.669718         0.400535
 C        -1.791362        -1.366077         1.034873
 C        -0.373673        -1.208552         0.327968
 C        -0.158851         0.093320        -0.417037
 O         0.386069         0.169229        -1.476109
 O        -0.914617         1.241136         0.063521
 C        -1.626781         1.284989         1.256044
 H        -3.682073         1.399238         2.451069
 H        -4.193850        -0.381662         2.632316
 H        -3.074775         0.358629         3.948075
 H        -3.944041        -1.097177         0.644521
 H        -2.820778         0.047845        -0.511544
 H        -1.825769        -2.364503         1.498610
 H         0.307594        -1.426357         1.137468
 H        -0.214517        -2.063010        -0.410441
 H        -1.002501         1.709788         2.111540
 H        -2.356952         2.105388         1.175609
