19
Iteration:  2367
 C        -2.928429         0.121419         2.922330
 C        -2.554098         0.145012         1.471811
 C        -3.265202        -0.830868         0.430894
 C        -1.917928        -1.214637         0.996173
 C        -0.603694        -1.123746         0.388485
 C        -0.272299         0.164446        -0.357264
 O         0.702310         0.090618        -1.097600
 O        -0.975342         1.327906        -0.146321
 C        -1.657404         1.334828         1.046532
 H        -3.616100         0.904347         3.401005
 H        -3.356264        -0.839614         3.249664
 H        -2.088593         0.240927         3.671734
 H        -4.107257        -1.464004         0.977492
 H        -3.389065        -0.450919        -0.612020
 H        -1.942980        -2.014242         1.746649
 H         0.195567        -1.290793         1.037431
 H        -0.403678        -1.785012        -0.425668
 H        -1.003889         1.621651         1.950904
 H        -2.295069         2.266110         0.996781
