19
Iteration:  4895charge 0 multiplicity 1
 C        -3.289614         0.111965         2.841599
 C        -2.462519         0.120295         1.585071
 C        -3.058726        -0.337584         0.268223
 C        -1.961579        -1.121239         0.962829
 C        -0.617419        -1.273234         0.326466
 C        -0.237187         0.003749        -0.393416
 O         0.339140         0.040963        -1.512829
 O        -0.761734         1.210481         0.201553
 C        -1.338317         1.266015         1.488712
 H        -4.036464         0.940215         2.710370
 H        -3.911691        -0.794701         2.673809
 H        -2.910516         0.108591         3.870494
 H        -4.005606        -0.863204         0.271576
 H        -2.778849         0.204543        -0.576726
 H        -2.325901        -2.027225         1.360709
 H         0.230693        -1.325353         1.101957
 H        -0.469897        -2.123015        -0.382236
 H        -0.490153         1.278862         2.251405
 H        -1.719618         2.374266         1.630625
