19
Iteration:  3499charge 0 multiplicity 1
 C        -3.173434         0.051013         2.915279
 C        -2.448431         0.141891         1.532472
 C        -3.256282        -0.457375         0.347248
 C        -2.125857        -1.178544         1.010101
 C        -0.810280        -1.240317         0.177175
 C        -0.270803         0.051717        -0.442627
 O         0.594258         0.064177        -1.331990
 O        -0.607887         1.281481         0.134070
 C        -1.399095         1.294792         1.346647
 H        -3.407364         1.061366         3.277382
 H        -4.004586        -0.676593         2.914373
 H        -2.553014        -0.298863         3.731754
 H        -4.270911        -0.516509         0.519193
 H        -2.880118        -0.041546        -0.630796
 H        -2.348611        -2.153899         1.509191
 H        -0.026554        -1.414804         1.032145
 H        -0.691737        -2.014113        -0.581440
 H        -0.714601         1.246024         2.244419
 H        -1.829806         2.358948         1.398480
