19
Iteration:    98
 C        -3.368217         0.284941         2.655119
 C        -2.452329         0.076842         1.437779
 C        -2.904578        -0.505877         0.126305
 C        -1.927897        -1.330011         1.020872
 C        -0.520605        -1.287590         0.482600
 C        -0.312347         0.086645        -0.315247
 O        -0.039655         0.117692        -1.466042
 O        -0.497239         1.354380         0.304890
 C        -1.344452         1.181375         1.508276
 H        -4.301581        -0.357640         2.636684
 H        -2.834588         0.066820         3.534303
 H        -3.639136         1.322684         2.701028
 H        -3.914235        -0.750557         0.295464
 H        -2.706736        -0.323461        -0.960143
 H        -2.325467        -2.244673         1.298722
 H         0.302474        -1.401756         1.255242
 H        -0.508969        -2.042665        -0.335352
 H        -0.622744         0.957865         2.311952
 H        -1.660594         2.185825         1.742739
