19
Iteration:   611charge 0 multiplicity 1
 C        -3.424540         0.350944         2.754345
 C        -2.449340         0.040200         1.617547
 C        -3.016085        -0.735089         0.398429
 C        -1.820004        -1.280860         1.088223
 C        -0.394459        -1.156029         0.463654
 C        -0.225815         0.102551        -0.481987
 O         0.376706         0.204290        -1.517604
 O        -0.850973         1.226279         0.076283
 C        -1.559944         1.186869         1.363580
 H        -3.398265         1.510180         2.992787
 H        -4.481891         0.314858         2.431541
 H        -3.036189        -0.046525         3.695981
 H        -3.891982        -1.311956         0.741540
 H        -3.042542        -0.377027        -0.609656
 H        -1.995304        -2.295067         1.616546
 H         0.293760        -1.205759         1.302611
 H        -0.140354        -2.070827        -0.087308
 H        -0.709372         1.335806         2.067165
 H        -2.091399         2.190605         1.343775
