19
Iteration:  2066
 C        -3.195116        -0.075697         2.836955
 C        -2.514533         0.131193         1.516494
 C        -3.032118        -0.596754         0.391267
 C        -1.864587        -1.231109         1.117926
 C        -0.446650        -0.993051         0.621804
 C        -0.337976         0.104037        -0.479257
 O         0.426375        -0.042582        -1.460307
 O        -0.768209         1.321693        -0.012690
 C        -1.679321         1.384801         1.182959
 H        -3.480421         0.979011         3.173791
 H        -4.026328        -0.817222         2.808214
 H        -2.440488        -0.418947         3.578621
 H        -3.965858        -0.980203         0.711495
 H        -2.959939        -0.116269        -0.608941
 H        -2.049690        -2.024295         1.793366
 H         0.042189        -0.698606         1.544532
 H         0.050127        -1.878838         0.127361
 H        -1.230516         1.677495         2.159709
 H        -2.388520         2.166348         0.896036
