19
Iteration:  3908
 C        -3.188025         0.079773         2.849357
 C        -2.453303         0.114100         1.556482
 C        -3.243259        -0.304240         0.396059
 C        -2.120337        -1.179674         1.004950
 C        -0.819514        -1.223947         0.197294
 C        -0.266302         0.066423        -0.485816
 O         0.634941        -0.007133        -1.273908
 O        -0.696857         1.322707         0.072662
 C        -1.319966         1.222442         1.432223
 H        -3.436030        -1.018976         3.032996
 H        -2.598765         0.284414         3.740118
 H        -4.134532         0.580010         2.658635
 H        -4.237916        -0.630011         0.648966
 H        -3.114584        -0.114467        -0.667103
 H        -2.520948        -2.088905         1.604392
 H         0.021533        -1.583317         0.709602
 H        -0.903607        -1.973960        -0.638933
 H        -0.473912         0.916550         2.045633
 H        -1.437623         2.325168         1.567548
