19
Iteration:  2327charge 0 multiplicity 1
 C        -3.127174         0.333526         2.957827
 C        -2.446906        -0.014492         1.643036
 C        -3.178606        -0.620343         0.462359
 C        -1.922689        -1.280034         1.092214
 C        -0.468320        -1.211308         0.246348
 C        -0.172639         0.123202        -0.423296
 O         0.756418         0.358937        -1.192761
 O        -1.105396         1.075050        -0.138723
 C        -1.693674         1.136337         1.103703
 H        -3.329610         1.442458         3.083383
 H        -4.184241         0.020308         3.073430
 H        -2.485516        -0.040089         3.744345
 H        -4.164078        -0.975009         0.791595
 H        -3.099372         0.013972        -0.420554
 H        -2.194256        -2.241981         1.505802
 H         0.381893        -1.400906         1.057963
 H        -0.528125        -2.100387        -0.455308
 H        -1.020853         1.742853         1.744850
 H        -2.430335         2.025678         1.075014
