19
Iteration:  4643charge 0 multiplicity 1
 C        -3.165232        -0.014778         2.944990
 C        -2.435266         0.179376         1.551567
 C        -3.166035        -0.365139         0.354776
 C        -2.029243        -1.175030         0.948928
 C        -0.721885        -1.324087         0.212241
 C        -0.263609         0.076680        -0.366442
 O         0.533632         0.067868        -1.222928
 O        -0.753271         1.268894         0.018827
 C        -1.431977         1.361692         1.306180
 H        -3.551349         0.984418         3.190359
 H        -3.929194        -0.783584         2.730240
 H        -2.387890        -0.465353         3.610988
 H        -4.016696        -1.029208         0.638769
 H        -3.126823         0.128726        -0.627008
 H        -2.091309        -2.076453         1.639022
 H         0.037630        -1.851121         0.813981
 H        -0.871848        -1.874340        -0.726188
 H        -0.662100         1.448902         2.087756
 H        -2.086166         2.309112         1.369109
