19
Iteration:  4347
 C        -3.115009         0.189377         2.962439
 C        -2.539914         0.088126         1.513613
 C        -3.231887        -0.485734         0.240070
 C        -2.097478        -1.191531         0.814758
 C        -0.721629        -1.206939         0.285775
 C        -0.256892         0.067857        -0.361782
 O         0.529174         0.178526        -1.302024
 O        -0.703884         1.222116         0.141152
 C        -1.359572         1.120118         1.403770
 H        -4.144689         0.359770         2.923134
 H        -2.781395        -0.710037         3.361615
 H        -2.590711         1.044985         3.342144
 H        -4.282891        -0.869867         0.330073
 H        -2.955105         0.098461        -0.637521
 H        -2.463287        -1.998896         1.473271
 H        -0.000730        -1.336647         1.108151
 H        -0.466227        -2.040889        -0.388537
 H        -0.531786         1.019570         2.119007
 H        -1.881659         2.086748         1.524810
