19
Iteration:   331
 C        -2.875320         0.243924         3.038859
 C        -2.378243         0.090721         1.576055
 C        -3.338451        -0.479116         0.590478
 C        -2.036497        -1.265868         0.820516
 C        -0.822074        -1.328088        -0.131112
 C        -0.152617         0.037271        -0.309239
 O         0.933228         0.160986        -0.901438
 O        -0.861307         1.152787         0.040006
 C        -1.884727         1.377173         0.959148
 H        -2.508071         1.066623         3.567398
 H        -4.046524         0.311713         3.083643
 H        -2.636727        -0.690384         3.667318
 H        -4.178357        -0.877233         1.122442
 H        -3.476494        -0.072634        -0.427134
 H        -2.124668        -2.231735         1.505847
 H        -0.024055        -2.016490         0.228851
 H        -0.977940        -1.622344        -1.144932
 H        -1.426201         1.908931         1.826923
 H        -2.641596         2.126669         0.713562
