19
Iteration:   728
 C        -2.824710         0.323700         2.973424
 C        -2.454903         0.068482         1.568656
 C        -3.353680        -0.743086         0.569508
 C        -1.991979        -1.229240         0.918768
 C        -0.725595        -1.251020         0.073376
 C        -0.151528         0.097286        -0.316421
 O         0.824031         0.188115        -1.029955
 O        -0.750583         1.210937         0.111237
 C        -1.982707         1.327442         0.879159
 H        -3.812939         0.517651         3.140998
 H        -2.755708        -0.601785         3.483166
 H        -2.266611         1.093520         3.384003
 H        -4.146418        -1.339037         1.136110
 H        -3.683280        -0.243493        -0.386013
 H        -2.135796        -2.162531         1.604176
 H         0.106589        -1.867243         0.396482
 H        -0.809700        -1.630691        -0.999940
 H        -1.766686         2.068196         1.612967
 H        -2.828024         1.697375         0.230341
