19
Iteration:  4746charge 0 multiplicity 1
 C        -3.314741         0.061167         2.930987
 C        -2.450706         0.175500         1.579816
 C        -3.071140        -0.399866         0.336018
 C        -2.068449        -1.185068         1.017234
 C        -0.703487        -1.300110         0.171914
 C        -0.261386         0.043503        -0.381709
 O         0.488338         0.115628        -1.399836
 O        -0.686058         1.218629         0.074909
 C        -1.385354         1.283788         1.458227
 H        -4.139574         0.925203         2.946810
 H        -3.897016        -0.913239         2.961679
 H        -2.607584         0.250945         3.818587
 H        -4.119112        -0.708770         0.290173
 H        -2.664657         0.112779        -0.535363
 H        -2.144153        -2.030408         1.693082
 H         0.109859        -1.613449         0.802926
 H        -0.774580        -1.990226        -0.704100
 H        -0.557084         1.238014         2.139753
 H        -1.739094         2.272587         1.321843
