19
Iteration:   795
 C        -2.864034         0.447746         2.936655
 C        -2.539134         0.112991         1.456412
 C        -3.322230        -1.116126         0.942859
 C        -1.855677        -1.234393         0.953312
 C        -1.138259        -0.968152        -0.402379
 C        -0.082037         0.158609        -0.250804
 O         0.945180         0.155969        -0.926477
 O        -0.481493         1.252052         0.470284
 C        -2.077118         1.164604         0.563206
 H        -3.469212         1.283427         3.063034
 H        -3.505766        -0.275291         3.379205
 H        -2.019644         0.590783         3.524919
 H        -3.909326        -1.595453         1.683989
 H        -3.788443        -0.984263        -0.080091
 H        -1.347474        -1.910663         1.766138
 H        -0.716239        -1.874893        -0.821303
 H        -1.989468        -0.706940        -1.121047
 H        -2.480707         2.102826         0.936650
 H        -2.379048         1.097110        -0.503725
