19
Iteration:  4873charge 0 multiplicity 1
 C        -3.401428         0.088884         2.841994
 C        -2.377561         0.045964         1.670510
 C        -2.942871        -0.158735         0.322471
 C        -2.001725        -1.239203         0.941745
 C        -0.510385        -1.239846         0.390316
 C        -0.327195         0.038603        -0.409212
 O         0.303233         0.057603        -1.509920
 O        -0.692786         1.193189         0.102913
 C        -1.440566         1.169427         1.433571
 H        -3.971166         1.065771         2.887090
 H        -4.175408        -0.701553         2.828705
 H        -3.022717         0.017813         3.855864
 H        -3.962369        -0.402257         0.425153
 H        -2.595750         0.295560        -0.544970
 H        -2.414276        -2.076149         1.386493
 H         0.252184        -1.366172         1.255559
 H        -0.305825        -2.007316        -0.401728
 H        -0.567694         1.449927         2.106385
 H        -1.746078         2.280741         1.299460
