19
Iteration:  3802
 C        -3.181170        -0.025000         2.810951
 C        -2.477723         0.231921         1.501986
 C        -3.129800        -0.316914         0.253103
 C        -1.968095        -1.099064         0.982100
 C        -0.757319        -1.247479         0.301388
 C        -0.258133         0.048492        -0.313797
 O         0.354813        -0.052663        -1.388284
 O        -0.662240         1.263064         0.140027
 C        -1.323720         1.301499         1.438427
 H        -4.186960        -0.324438         2.400934
 H        -2.758387        -0.779033         3.460298
 H        -3.282158         0.933625         3.365711
 H        -4.126839        -0.779139         0.465297
 H        -2.878060         0.198933        -0.688877
 H        -2.404868        -1.900782         1.625414
 H        -0.083006        -1.682406         1.158982
 H        -0.841519        -1.941355        -0.586382
 H        -0.597860         0.918523         2.271288
 H        -1.530198         2.309046         1.694068
