19
Iteration:  4309charge 0 multiplicity 1
 C        -3.188964         0.040251         2.880952
 C        -2.437265         0.097306         1.590108
 C        -3.288567        -0.340079         0.410215
 C        -2.120325        -1.145092         0.853937
 C        -0.655620        -1.207480         0.200576
 C        -0.243985         0.043714        -0.403252
 O         0.622203         0.092490        -1.276442
 O        -0.676851         1.239092         0.083832
 C        -1.454784         1.205012         1.325106
 H        -4.273505        -0.224395         2.980738
 H        -2.739303        -0.610655         3.687276
 H        -3.107496         0.936821         3.514861
 H        -4.227275        -0.834759         0.500904
 H        -3.233036         0.284826        -0.464201
 H        -2.252824        -2.064007         1.375980
 H        -0.015664        -1.438766         1.030257
 H        -0.565643        -1.956993        -0.570216
 H        -0.816507         1.112799         2.284681
 H        -1.973062         2.205659         1.331580
