19
Iteration:  1843
 C        -3.166421         0.125605         2.884240
 C        -2.512924         0.084242         1.520840
 C        -3.173538        -0.664082         0.452369
 C        -1.859915        -1.248247         1.131428
 C        -0.482615        -1.165217         0.404899
 C        -0.239048         0.129181        -0.360071
 O         0.517379         0.068194        -1.306749
 O        -0.893206         1.306384        -0.095093
 C        -1.616672         1.370434         1.170104
 H        -4.020353         0.844282         2.826051
 H        -3.697591        -0.856000         2.995569
 H        -2.494588         0.338888         3.749798
 H        -3.961775        -1.402718         0.332204
 H        -3.113622        -0.299135        -0.557039
 H        -2.009948        -2.044405         1.898910
 H         0.447214        -1.189499         1.111772
 H        -0.217790        -1.801937        -0.406970
 H        -0.835555         1.592345         1.908915
 H        -2.234262         2.281645         1.008903
