19
Iteration:  2593
 C        -3.281133         0.203339         2.731232
 C        -2.487493         0.064573         1.451661
 C        -3.039417        -0.740523         0.317401
 C        -1.843930        -1.175148         1.225816
 C        -0.458794        -1.048874         0.487716
 C        -0.284691         0.091166        -0.413876
 O         0.291365         0.118601        -1.501619
 O        -0.801375         1.259525         0.123668
 C        -1.492964         1.237625         1.305676
 H        -3.909114         1.129298         2.874552
 H        -3.940995        -0.713688         2.751334
 H        -2.662122         0.206818         3.706248
 H        -4.055128        -1.078868         0.524910
 H        -2.864248        -0.454430        -0.816546
 H        -1.898301        -2.006883         1.939801
 H         0.346186        -0.968864         1.285604
 H        -0.269740        -2.005892        -0.087348
 H        -0.711480         1.098331         2.106495
 H        -1.982263         2.198444         1.373794
