19
Iteration:   305charge 0 multiplicity 1
 C        -2.909173         0.272143         3.017512
 C        -2.471406         0.039649         1.578837
 C        -3.333006        -0.680640         0.465220
 C        -2.004974        -1.194968         0.960172
 C        -0.993984        -1.232508        -0.135145
 C        -0.163015         0.054551        -0.389251
 O         0.945000         0.127931        -0.814458
 O        -0.831139         1.227087        -0.057590
 C        -1.718045         1.351089         1.081343
 H        -2.902887         1.452693         3.218480
 H        -3.862756        -0.133921         3.431702
 H        -2.073425        -0.115198         3.672662
 H        -4.121503        -1.388132         0.746274
 H        -3.266697        -0.170040        -0.477214
 H        -2.038639        -2.085339         1.523580
 H        -0.229454        -2.058146        -0.099492
 H        -1.467737        -1.395022        -1.142877
 H        -1.098632         1.716380         2.005579
 H        -2.385429         2.219967         1.028793
