19
Iteration:  2728
 C        -2.997993         0.225776         3.055545
 C        -2.448816         0.045910         1.624353
 C        -3.152616        -0.578191         0.403905
 C        -1.947986        -1.220877         0.876030
 C        -0.545469        -1.217297         0.318114
 C        -0.154135         0.036266        -0.376573
 O         0.734095         0.269279        -1.205845
 O        -1.019473         1.075131        -0.022531
 C        -1.851006         1.345465         1.051279
 H        -3.794050         0.994057         3.187751
 H        -3.454843        -0.719058         3.356979
 H        -2.045262         0.353468         3.631687
 H        -4.145851        -1.213772         0.465614
 H        -3.319585         0.037028        -0.459484
 H        -2.153919        -2.153504         1.443782
 H         0.163433        -1.202463         1.250789
 H        -0.387664        -2.139670        -0.211735
 H        -1.197824         1.903971         1.718567
 H        -2.679726         2.021058         0.723457
