19
Iteration:  2953charge 0 multiplicity 1
 C        -3.362357         0.296967         2.664723
 C        -2.373706         0.110819         1.601536
 C        -2.817499        -0.778918         0.282793
 C        -1.683345        -1.310935         1.158384
 C        -0.393458        -1.181258         0.463721
 C        -0.352251         0.130312        -0.330353
 O         0.229108         0.148375        -1.422828
 O        -1.002906         1.253699         0.035015
 C        -1.569956         1.374037         1.394204
 H        -3.605713         1.390961         2.829319
 H        -4.232272        -0.382000         2.492619
 H        -2.966425        -0.207010         3.546636
 H        -3.764396        -1.265013         0.414122
 H        -2.683755        -0.547695        -0.853987
 H        -1.930340        -2.250204         1.595664
 H         0.581033        -1.333382         1.053849
 H        -0.321969        -2.143769        -0.180978
 H        -0.700482         1.378268         2.052401
 H        -2.137708         2.278308         1.323994
