19
Iteration:  4007
 C        -3.134498         0.098855         2.866288
 C        -2.445231         0.118039         1.468628
 C        -3.292681        -0.369341         0.334578
 C        -2.113419        -1.179744         0.900499
 C        -0.714769        -1.230263         0.293327
 C        -0.177590         0.067602        -0.351653
 O         0.462600         0.048115        -1.412157
 O        -0.591358         1.289700         0.228952
 C        -1.429148         1.204053         1.372943
 H        -4.229541        -0.144778         2.804507
 H        -2.776952        -0.691047         3.503480
 H        -3.090002         1.138418         3.302717
 H        -4.300461        -0.714369         0.513801
 H        -3.044714        -0.111842        -0.707639
 H        -2.407238        -2.087987         1.430856
 H        -0.014492        -1.555336         1.056624
 H        -0.627919        -2.006188        -0.521413
 H        -0.772930         1.036430         2.291594
 H        -1.742905         2.262772         1.526689
