19
Iteration:   122charge 0 multiplicity 1
 C        -3.315162         0.279365         2.633614
 C        -2.318515         0.086049         1.594652
 C        -2.920428        -0.403032         0.200178
 C        -1.960748        -1.243913         0.997912
 C        -0.561303        -1.289777         0.360516
 C        -0.291022         0.036140        -0.350895
 O         0.151369         0.177237        -1.468700
 O        -0.731338         1.110619         0.297627
 C        -1.390287         1.205998         1.517841
 H        -3.798595        -0.613847         2.735064
 H        -2.894766         0.585316         3.592348
 H        -4.038678         1.046112         2.340046
 H        -3.959415        -0.634532        -0.000613
 H        -2.505043         0.044135        -0.676311
 H        -2.355378        -2.144856         1.627526
 H         0.224573        -1.367617         1.156316
 H        -0.514544        -2.072792        -0.372605
 H        -0.679234         1.357564         2.290487
 H        -1.876148         2.176842         1.491688
