19
Iteration:   898charge 0 multiplicity 1
 C        -2.073461         0.282583         2.945995
 C        -2.386275         0.034175         1.429925
 C        -3.549775        -0.848101         0.936541
 C        -2.081024        -1.242706         0.701982
 C        -1.034851        -1.107463        -0.426609
 C        -0.166302         0.164677        -0.132906
 O         1.047685         0.202288        -0.146042
 O        -0.916993         1.271957        -0.066381
 C        -2.314302         1.228252         0.406972
 H        -3.050306         0.460903         3.459125
 H        -1.570231        -0.617071         3.335486
 H        -1.428095         1.110035         3.312922
 H        -4.112137        -1.443285         1.628809
 H        -4.247129        -0.426728         0.195183
 H        -1.793572        -1.974663         1.390295
 H        -0.539788        -2.135006        -0.424295
 H        -1.458626        -0.997111        -1.462943
 H        -2.359031         2.164392         1.034251
 H        -3.007792         1.175813        -0.490507
