19
Iteration:  3259charge 0 multiplicity 1
 C        -3.174671         0.237179         2.821726
 C        -2.393346         0.060323         1.577041
 C        -2.987338        -0.437724         0.231608
 C        -1.860024        -1.269724         0.970234
 C        -0.555551        -1.298911         0.352364
 C        -0.230381         0.063673        -0.269971
 O         0.355453         0.179418        -1.330537
 O        -0.968269         1.211233         0.035320
 C        -1.531072         1.217079         1.381058
 H        -4.095529         0.883430         2.554729
 H        -3.604873        -0.744362         3.251336
 H        -2.631368         0.739677         3.663761
 H        -3.959933        -0.901506         0.236127
 H        -2.816102         0.234434        -0.619856
 H        -2.127205        -2.199659         1.555269
 H         0.216682        -1.378071         1.073875
 H        -0.434713        -2.058535        -0.415594
 H        -0.705454         1.071845         2.060724
 H        -2.016213         2.276279         1.480510
