19
Iteration:   607charge 0 multiplicity 1
 C        -3.410605         0.359173         2.723670
 C        -2.461638         0.038564         1.585926
 C        -3.019901        -0.765115         0.400606
 C        -1.804943        -1.250888         1.087759
 C        -0.400664        -1.140951         0.442622
 C        -0.204074         0.116817        -0.441849
 O         0.320443         0.177631        -1.512085
 O        -0.824169         1.226579         0.091312
 C        -1.520716         1.226896         1.362391
 H        -3.390261         1.419018         2.926528
 H        -4.483058         0.171274         2.533136
 H        -3.194177        -0.177543         3.667913
 H        -3.862483        -1.404334         0.799354
 H        -3.079088        -0.405670        -0.667456
 H        -2.007287        -2.198126         1.609697
 H         0.324232        -1.157854         1.254944
 H        -0.219591        -2.140505        -0.065575
 H        -0.816766         1.286381         2.222230
 H        -2.103506         2.165480         1.396470
