19
Iteration:  1723charge 0 multiplicity 1
 C        -3.134621         0.083222         2.834335
 C        -2.496587         0.117273         1.464881
 C        -2.935879        -0.591464         0.239101
 C        -1.807899        -1.149929         1.087823
 C        -0.363927        -1.180925         0.582690
 C        -0.183232         0.016458        -0.291742
 O         0.184695         0.004325        -1.457768
 O        -0.780792         1.256444         0.068381
 C        -1.815532         1.449440         1.222222
 H        -3.690800         1.030011         2.956679
 H        -3.843969        -0.733726         3.057558
 H        -2.400359        -0.005272         3.646854
 H        -3.976800        -0.925310         0.202961
 H        -2.708565        -0.050469        -0.639685
 H        -2.015418        -2.107586         1.549676
 H         0.423320        -1.228905         1.477319
 H        -0.295452        -2.144942         0.119645
 H        -1.302640         1.869808         2.097644
 H        -2.566319         2.229877         0.970313
