19
Iteration:  2556
 C        -3.207225         0.060724         2.820190
 C        -2.478939         0.087713         1.464099
 C        -3.009164        -0.602423         0.162461
 C        -1.821037        -1.207150         1.029020
 C        -0.393009        -1.048536         0.629483
 C        -0.328762         0.096104        -0.304485
 O         0.121930        -0.092150        -1.416586
 O        -0.746131         1.356182         0.087044
 C        -1.503937         1.365707         1.250616
 H        -4.176743         0.718071         2.710957
 H        -3.466617        -1.001685         3.034048
 H        -2.542490         0.362054         3.627306
 H        -3.996749        -1.040436         0.324816
 H        -2.878827        -0.088847        -0.702527
 H        -2.180240        -2.145887         1.485186
 H         0.315039        -0.849670         1.381546
 H        -0.025630        -1.892747         0.081644
 H        -0.854559         1.392642         2.177301
 H        -2.071695         2.332110         1.416514
