19
Iteration:  3586charge 0 multiplicity 1
 C        -3.273465         0.144221         2.935228
 C        -2.404045         0.092591         1.592132
 C        -3.222170        -0.211703         0.382972
 C        -2.058186        -1.156967         0.867970
 C        -0.676419        -1.319750         0.199922
 C        -0.248059        -0.004709        -0.439484
 O         0.554089         0.078835        -1.313195
 O        -0.761573         1.195663         0.045860
 C        -1.319575         1.182477         1.468776
 H        -4.367930         0.068905         2.766553
 H        -3.006771        -0.742753         3.519672
 H        -3.122395         1.085159         3.425356
 H        -4.233184        -0.613892         0.532610
 H        -2.828533         0.367050        -0.432913
 H        -2.426387        -2.078239         1.376924
 H         0.099157        -1.633064         0.906886
 H        -0.761584        -1.949015        -0.671961
 H        -0.543192         1.222528         2.203783
 H        -1.822846         2.202379         1.445193
