19
Iteration:   519charge 0 multiplicity 1
 C        -3.370172         0.226580         2.738785
 C        -2.439179         0.014420         1.539032
 C        -2.992514        -0.557056         0.196852
 C        -1.785495        -1.143993         0.940064
 C        -0.198743        -1.135276         0.608178
 C        -0.187952         0.066158        -0.337188
 O        -0.089399        -0.089060        -1.543384
 O        -0.617567         1.281683         0.259397
 C        -1.628679         1.322088         1.384408
 H        -4.307310         0.584474         2.374004
 H        -3.578156        -0.805411         3.132394
 H        -2.866273         0.933203         3.426242
 H        -3.861748        -1.224122         0.095337
 H        -2.811688         0.224974        -0.657517
 H        -2.143467        -2.031043         1.354186
 H         0.455273        -1.056185         1.469320
 H         0.056799        -2.040740         0.003301
 H        -1.014499         1.576204         2.264550
 H        -2.154095         2.271785         1.128452
