19
Iteration:  1845charge 0 multiplicity 1
 C        -3.145624         0.109605         2.891702
 C        -2.533297         0.103535         1.520276
 C        -3.195026        -0.678916         0.450724
 C        -1.867194        -1.231034         1.135933
 C        -0.477220        -1.159684         0.415388
 C        -0.227304         0.108358        -0.369691
 O         0.522457         0.073599        -1.306004
 O        -0.879339         1.321180        -0.102253
 C        -1.631364         1.362007         1.166537
 H        -4.004380         0.847257         2.877942
 H        -3.683419        -0.838718         2.970778
 H        -2.481584         0.327680         3.725388
 H        -3.985734        -1.353826         0.369558
 H        -3.136280        -0.310611        -0.594286
 H        -1.989933        -2.071284         1.862400
 H         0.463887        -1.170951         1.161729
 H        -0.211583        -1.832572        -0.421099
 H        -0.891231         1.506411         1.960090
 H        -2.210149         2.254416         0.973309
