19
Iteration:  2906
 C        -3.293560         0.098918         2.843676
 C        -2.570447         0.060136         1.527572
 C        -3.088633        -0.737495         0.331097
 C        -1.819684        -1.182582         1.060369
 C        -0.372914        -0.970761         0.586857
 C        -0.209252         0.077399        -0.464708
 O         0.393068         0.084994        -1.502335
 O        -0.921476         1.272658         0.008449
 C        -1.493304         1.314689         1.319479
 H        -3.773122         1.117703         2.970731
 H        -4.078752        -0.646811         2.923098
 H        -2.684359        -0.127917         3.701592
 H        -3.863998        -1.512254         0.578256
 H        -3.141228        -0.323925        -0.630877
 H        -2.040427        -2.095767         1.626440
 H         0.219165        -0.691954         1.526645
 H         0.173213        -1.907913         0.309086
 H        -0.783161         1.340325         2.130304
 H        -2.166645         2.242369         1.187531
