19
Iteration:  2271
 C        -3.127352         0.069195         2.850694
 C        -2.513207         0.151781         1.502977
 C        -3.154986        -0.770006         0.455763
 C        -1.880305        -1.193648         1.181577
 C        -0.622190        -1.092464         0.420132
 C        -0.265876         0.132918        -0.444082
 O         0.626423         0.185216        -1.288511
 O        -0.902484         1.282484        -0.118016
 C        -1.602065         1.271584         1.160885
 H        -3.558606         1.062304         3.197762
 H        -3.940795        -0.651061         2.851796
 H        -2.629856        -0.226940         3.772965
 H        -4.147323        -1.337620         0.685923
 H        -2.873095        -0.507972        -0.573537
 H        -1.856863        -1.792538         2.072965
 H         0.240345        -1.425167         1.146886
 H        -0.686321        -1.981715        -0.280128
 H        -0.718202         1.311561         1.887261
 H        -2.182647         2.279866         1.084575
