19
Iteration:   536charge 0 multiplicity 1
 C        -3.375916         0.144178         2.694895
 C        -2.450143         0.115294         1.470042
 C        -2.932179        -0.467917         0.229522
 C        -1.693343        -1.200395         1.009057
 C        -0.240957        -1.132537         0.611996
 C        -0.235484         0.013146        -0.327496
 O        -0.170468        -0.027603        -1.504889
 O        -0.556128         1.243783         0.291289
 C        -1.633579         1.316381         1.252777
 H        -4.088256         1.007425         2.477437
 H        -3.957370        -0.769420         2.939229
 H        -2.767695         0.238250         3.629828
 H        -3.796237        -1.086912         0.438776
 H        -2.814788         0.057284        -0.662986
 H        -1.991459        -2.223057         1.399861
 H         0.457709        -0.994664         1.535415
 H         0.151470        -2.003712         0.112002
 H        -1.281794         1.761530         2.222751
 H        -2.315270         2.129344         0.921878
